File C:\Users\Ahmed\Desktop\Graduation-project\development\04-sap model-2\end gable purlins columns\end gable purlins columns.$2k was saved on m/d/yy at h:mm:ss
 
TABLE:  "ACTIVE DEGREES OF FREEDOM"
   UX=Yes   UY=Yes   UZ=Yes   RX=Yes   RY=Yes   RZ=Yes
 
TABLE:  "ANALYSIS OPTIONS"
   Solver=Advanced   SolverProc=Auto   Force32Bit=No   StiffCase=None   GeomMod=None   HingeOpt="In Elements"   NumAThreads=0   MaxFileSize=0   NumDThreads=0   NumRThreads=0   UseMMFiles="Program Determined"   AllowDiff=No
 
TABLE:  "AUTO WAVE 3 - WAVE CHARACTERISTICS - GENERAL"
   WaveChar=Default   WaveType="From Theory"   KinFactor=1   SWaterDepth=1800   WaveHeight=720   WavePeriod=12   WaveTheory=Linear
 
TABLE:  "CASE - MODAL 1 - GENERAL"
   Case=MODAL   ModeType=Eigen   MaxNumModes=12   MinNumModes=1   EigenShift=0   EigenCutoff=0   EigenTol=1E-09   AutoShift=Yes
 
TABLE:  "CASE - STATIC 1 - LOAD ASSIGNMENTS"
   Case=DEAD   LoadType="Load pattern"   LoadName=DEAD   LoadSF=1
 
TABLE:  "CONNECTIVITY - FRAME"
   Frame=1   JointI=1   JointJ=2   IsCurved=No   GUID=d167b891-8525-4514-8a90-102a4b07ff20
   Frame=2   JointI=2   JointJ=3   IsCurved=No   GUID=8cbbaf47-b860-4313-8d93-259066d55225
   Frame=3   JointI=3   JointJ=4   IsCurved=No   GUID=0801cb4a-c557-4079-a1b7-8a891ae52106
   Frame=4   JointI=4   JointJ=5   IsCurved=No   GUID=443b9edf-d237-4207-935e-ed8608e74908
   Frame=5   JointI=5   JointJ=6   IsCurved=No   GUID=be966042-b2d0-4992-a2c7-bb02f3ef8aa9
   Frame=6   JointI=7   JointJ=8   IsCurved=No   GUID=4bf813e2-570e-4c38-91fa-e0dbf572ac80
   Frame=7   JointI=8   JointJ=9   IsCurved=No   GUID=8c8404a9-cd65-4e33-a4c7-8d4d113a4a9c
   Frame=8   JointI=9   JointJ=10   IsCurved=No   GUID=23519232-7c7e-4587-b86d-e81bf1c18cd3
   Frame=9   JointI=10   JointJ=11   IsCurved=No   GUID=fea0d83b-26a8-47d9-8dfb-4ae36621b667
   Frame=10   JointI=11   JointJ=12   IsCurved=No   GUID=3801e91f-b6c8-4d4c-b75e-8c338f446585
   Frame=11   JointI=12   JointJ=13   IsCurved=No   GUID=cc1a7e22-c3c7-4dac-a8d6-240214c4d55b
   Frame=12   JointI=14   JointJ=15   IsCurved=No   GUID=208d3891-4a76-4655-9f12-9b2db82b5c9b
   Frame=13   JointI=15   JointJ=16   IsCurved=No   GUID=137f5e0e-13c3-4084-912a-0778cdc41da5
   Frame=14   JointI=16   JointJ=17   IsCurved=No   GUID=da7f13bf-23f0-4010-826a-35882a972324
   Frame=15   JointI=17   JointJ=18   IsCurved=No   GUID=7c6629b3-38ff-4e7f-964e-7f53b0f779bb
   Frame=16   JointI=18   JointJ=19   IsCurved=No   GUID=e16f49a4-c30a-4bd2-be82-ea630dc883e2
   Frame=17   JointI=19   JointJ=20   IsCurved=No   GUID=e9e8b81e-e9cc-4d73-8b20-bcb64e7d778b
   Frame=18   JointI=20   JointJ=21   IsCurved=No   GUID=b60fa486-770b-4258-86c5-df8ed1d0b8ee
   Frame=19   JointI=22   JointJ=23   IsCurved=No   GUID=c02fb8f7-6288-4f67-82b7-3080126574b9
   Frame=20   JointI=23   JointJ=24   IsCurved=No   GUID=8197442c-6226-42ee-bfc8-f8158e3a44bd
   Frame=21   JointI=24   JointJ=25   IsCurved=No   GUID=ae17d94a-b9b4-4749-8b35-ce6cff9e493a
   Frame=22   JointI=25   JointJ=26   IsCurved=No   GUID=4373912a-0450-4d20-961d-1e11cc5aa622
   Frame=23   JointI=26   JointJ=27   IsCurved=No   GUID=d3e72e39-9b55-4261-a5f6-3ca54a23c453
   Frame=24   JointI=28   JointJ=29   IsCurved=No   GUID=a8763b44-1ef2-4c7c-964e-3e0c2dd46285
   Frame=25   JointI=29   JointJ=30   IsCurved=No   GUID=26e5246e-e9da-43cd-ae3e-ac722d8fca03
   Frame=26   JointI=30   JointJ=31   IsCurved=No   GUID=f6fb149f-e944-4df8-9ad3-4aa0a56c9ed1
   Frame=27   JointI=31   JointJ=32   IsCurved=No   GUID=f81a6827-33ba-4604-b197-93ef273f37d1
   Frame=28   JointI=32   JointJ=33   IsCurved=No   GUID=4475eed1-537a-4ada-94fd-36d8d3f78428
   Frame=29   JointI=33   JointJ=34   IsCurved=No   GUID=35f4b9f3-1b4b-46bd-b2c1-5140d2189f6b
   Frame=30   JointI=34   JointJ=35   IsCurved=No   GUID=2f866c5f-b796-4afc-9890-c45e5484bf4d
   Frame=31   JointI=35   JointJ=36   IsCurved=No   GUID=84706500-c854-4888-99dc-1b729b994135
   Frame=32   JointI=37   JointJ=38   IsCurved=No   GUID=48aed789-64fe-405c-b45f-7fd61999e335
   Frame=33   JointI=38   JointJ=39   IsCurved=No   GUID=8b594031-cfda-4255-a9ac-4d203e1bd1b5
   Frame=34   JointI=39   JointJ=40   IsCurved=No   GUID=cf87e64c-7065-485a-ab2b-573c26110116
   Frame=35   JointI=40   JointJ=41   IsCurved=No   GUID=0cf40e11-db5b-439e-be34-b50d9d3da51f
   Frame=36   JointI=41   JointJ=42   IsCurved=No   GUID=251e63f7-0d85-4cde-9a34-644ed7ee3786
   Frame=37   JointI=42   JointJ=43   IsCurved=No   GUID=f74aab81-2431-44a7-a791-3f6813d7c1c6
   Frame=38   JointI=43   JointJ=44   IsCurved=No   GUID=d7b3e37e-ea0f-4d34-9a5b-2b32c1f65ad2
 
TABLE:  "COORDINATE SYSTEMS"
   Name=GLOBAL   Type=Cartesian   X=0   Y=0   Z=0   AboutZ=0   AboutY=0   AboutX=0
 
TABLE:  "DATABASE DOCUMENTATION"
 
TABLE:  "DATABASE FORMAT TYPES"
   UnitsCurr=Yes   OverrideE=No
 
TABLE:  "FRAME AUTO MESH ASSIGNMENTS"
   Frame=1   AutoMesh=Yes   AtJoints=Yes   AtFrames=No   NumSegments=0   MaxLength=0   MaxDegrees=0
   Frame=2   AutoMesh=Yes   AtJoints=Yes   AtFrames=No   NumSegments=0   MaxLength=0   MaxDegrees=0
   Frame=3   AutoMesh=Yes   AtJoints=Yes   AtFrames=No   NumSegments=0   MaxLength=0   MaxDegrees=0
   Frame=4   AutoMesh=Yes   AtJoints=Yes   AtFrames=No   NumSegments=0   MaxLength=0   MaxDegrees=0
   Frame=5   AutoMesh=Yes   AtJoints=Yes   AtFrames=No   NumSegments=0   MaxLength=0   MaxDegrees=0
   Frame=6   AutoMesh=Yes   AtJoints=Yes   AtFrames=No   NumSegments=0   MaxLength=0   MaxDegrees=0
   Frame=7   AutoMesh=Yes   AtJoints=Yes   AtFrames=No   NumSegments=0   MaxLength=0   MaxDegrees=0
   Frame=8   AutoMesh=Yes   AtJoints=Yes   AtFrames=No   NumSegments=0   MaxLength=0   MaxDegrees=0
   Frame=9   AutoMesh=Yes   AtJoints=Yes   AtFrames=No   NumSegments=0   MaxLength=0   MaxDegrees=0
   Frame=10   AutoMesh=Yes   AtJoints=Yes   AtFrames=No   NumSegments=0   MaxLength=0   MaxDegrees=0
   Frame=11   AutoMesh=Yes   AtJoints=Yes   AtFrames=No   NumSegments=0   MaxLength=0   MaxDegrees=0
   Frame=12   AutoMesh=Yes   AtJoints=Yes   AtFrames=No   NumSegments=0   MaxLength=0   MaxDegrees=0
   Frame=13   AutoMesh=Yes   AtJoints=Yes   AtFrames=No   NumSegments=0   MaxLength=0   MaxDegrees=0
   Frame=14   AutoMesh=Yes   AtJoints=Yes   AtFrames=No   NumSegments=0   MaxLength=0   MaxDegrees=0
   Frame=15   AutoMesh=Yes   AtJoints=Yes   AtFrames=No   NumSegments=0   MaxLength=0   MaxDegrees=0
   Frame=16   AutoMesh=Yes   AtJoints=Yes   AtFrames=No   NumSegments=0   MaxLength=0   MaxDegrees=0
   Frame=17   AutoMesh=Yes   AtJoints=Yes   AtFrames=No   NumSegments=0   MaxLength=0   MaxDegrees=0
   Frame=18   AutoMesh=Yes   AtJoints=Yes   AtFrames=No   NumSegments=0   MaxLength=0   MaxDegrees=0
   Frame=19   AutoMesh=Yes   AtJoints=Yes   AtFrames=No   NumSegments=0   MaxLength=0   MaxDegrees=0
   Frame=20   AutoMesh=Yes   AtJoints=Yes   AtFrames=No   NumSegments=0   MaxLength=0   MaxDegrees=0
# ... 18 like lines cut
 
TABLE:  "FRAME DESIGN PROCEDURES"
   Frame=1   DesignProc="From Material"
   Frame=2   DesignProc="From Material"
   Frame=3   DesignProc="From Material"
   Frame=4   DesignProc="From Material"
   Frame=5   DesignProc="From Material"
   Frame=6   DesignProc="From Material"
   Frame=7   DesignProc="From Material"
   Frame=8   DesignProc="From Material"
   Frame=9   DesignProc="From Material"
   Frame=10   DesignProc="From Material"
   Frame=11   DesignProc="From Material"
   Frame=12   DesignProc="From Material"
   Frame=13   DesignProc="From Material"
   Frame=14   DesignProc="From Material"
   Frame=15   DesignProc="From Material"
   Frame=16   DesignProc="From Material"
   Frame=17   DesignProc="From Material"
   Frame=18   DesignProc="From Material"
   Frame=19   DesignProc="From Material"
   Frame=20   DesignProc="From Material"
# ... 18 like lines cut
 
TABLE:  "FRAME LOAD TRANSFER OPTIONS"
   Frame=1   Transfer=Yes
   Frame=2   Transfer=Yes
   Frame=3   Transfer=Yes
   Frame=4   Transfer=Yes
   Frame=5   Transfer=Yes
   Frame=6   Transfer=Yes
   Frame=7   Transfer=Yes
   Frame=8   Transfer=Yes
   Frame=9   Transfer=Yes
   Frame=10   Transfer=Yes
   Frame=11   Transfer=Yes
   Frame=12   Transfer=Yes
   Frame=13   Transfer=Yes
   Frame=14   Transfer=Yes
   Frame=15   Transfer=Yes
   Frame=16   Transfer=Yes
   Frame=17   Transfer=Yes
   Frame=18   Transfer=Yes
   Frame=19   Transfer=Yes
   Frame=20   Transfer=Yes
# ... 18 like lines cut
 
TABLE:  "FRAME OUTPUT STATION ASSIGNMENTS"
   Frame=1   StationType=MaxStaSpcg   MaxStaSpcg=24   AddAtElmInt=Yes   AddAtPtLoad=Yes
   Frame=2   StationType=MaxStaSpcg   MaxStaSpcg=24   AddAtElmInt=Yes   AddAtPtLoad=Yes
   Frame=3   StationType=MaxStaSpcg   MaxStaSpcg=24   AddAtElmInt=Yes   AddAtPtLoad=Yes
   Frame=4   StationType=MaxStaSpcg   MaxStaSpcg=24   AddAtElmInt=Yes   AddAtPtLoad=Yes
   Frame=5   StationType=MaxStaSpcg   MaxStaSpcg=24   AddAtElmInt=Yes   AddAtPtLoad=Yes
   Frame=6   StationType=MaxStaSpcg   MaxStaSpcg=24   AddAtElmInt=Yes   AddAtPtLoad=Yes
   Frame=7   StationType=MaxStaSpcg   MaxStaSpcg=24   AddAtElmInt=Yes   AddAtPtLoad=Yes
   Frame=8   StationType=MaxStaSpcg   MaxStaSpcg=24   AddAtElmInt=Yes   AddAtPtLoad=Yes
   Frame=9   StationType=MaxStaSpcg   MaxStaSpcg=24   AddAtElmInt=Yes   AddAtPtLoad=Yes
   Frame=10   StationType=MaxStaSpcg   MaxStaSpcg=24   AddAtElmInt=Yes   AddAtPtLoad=Yes
   Frame=11   StationType=MaxStaSpcg   MaxStaSpcg=24   AddAtElmInt=Yes   AddAtPtLoad=Yes
   Frame=12   StationType=MaxStaSpcg   MaxStaSpcg=24   AddAtElmInt=Yes   AddAtPtLoad=Yes
   Frame=13   StationType=MaxStaSpcg   MaxStaSpcg=24   AddAtElmInt=Yes   AddAtPtLoad=Yes
   Frame=14   StationType=MaxStaSpcg   MaxStaSpcg=24   AddAtElmInt=Yes   AddAtPtLoad=Yes
   Frame=15   StationType=MaxStaSpcg   MaxStaSpcg=24   AddAtElmInt=Yes   AddAtPtLoad=Yes
   Frame=16   StationType=MaxStaSpcg   MaxStaSpcg=24   AddAtElmInt=Yes   AddAtPtLoad=Yes
   Frame=17   StationType=MaxStaSpcg   MaxStaSpcg=24   AddAtElmInt=Yes   AddAtPtLoad=Yes
   Frame=18   StationType=MaxStaSpcg   MaxStaSpcg=24   AddAtElmInt=Yes   AddAtPtLoad=Yes
   Frame=19   StationType=MaxStaSpcg   MaxStaSpcg=24   AddAtElmInt=Yes   AddAtPtLoad=Yes
   Frame=20   StationType=MaxStaSpcg   MaxStaSpcg=24   AddAtElmInt=Yes   AddAtPtLoad=Yes
# ... 18 like lines cut
 
TABLE:  "FRAME SECTION ASSIGNMENTS"
   Frame=1   AutoSelect=N.A.   AnalSect=FSEC1   MatProp=Default
   Frame=2   AutoSelect=N.A.   AnalSect=FSEC1   MatProp=Default
   Frame=3   AutoSelect=N.A.   AnalSect=FSEC1   MatProp=Default
   Frame=4   AutoSelect=N.A.   AnalSect=FSEC1   MatProp=Default
   Frame=5   AutoSelect=N.A.   AnalSect=FSEC1   MatProp=Default
   Frame=6   AutoSelect=N.A.   AnalSect=FSEC1   MatProp=Default
   Frame=7   AutoSelect=N.A.   AnalSect=FSEC1   MatProp=Default
   Frame=8   AutoSelect=N.A.   AnalSect=FSEC1   MatProp=Default
   Frame=9   AutoSelect=N.A.   AnalSect=FSEC1   MatProp=Default
   Frame=10   AutoSelect=N.A.   AnalSect=FSEC1   MatProp=Default
   Frame=11   AutoSelect=N.A.   AnalSect=FSEC1   MatProp=Default
   Frame=12   AutoSelect=N.A.   AnalSect=FSEC1   MatProp=Default
   Frame=13   AutoSelect=N.A.   AnalSect=FSEC1   MatProp=Default
   Frame=14   AutoSelect=N.A.   AnalSect=FSEC1   MatProp=Default
   Frame=15   AutoSelect=N.A.   AnalSect=FSEC1   MatProp=Default
   Frame=16   AutoSelect=N.A.   AnalSect=FSEC1   MatProp=Default
   Frame=17   AutoSelect=N.A.   AnalSect=FSEC1   MatProp=Default
   Frame=18   AutoSelect=N.A.   AnalSect=FSEC1   MatProp=Default
   Frame=19   AutoSelect=N.A.   AnalSect=FSEC1   MatProp=Default
   Frame=20   AutoSelect=N.A.   AnalSect=FSEC1   MatProp=Default
# ... 18 like lines cut
 
TABLE:  "FRAME SECTION PROPERTIES 01 - GENERAL"
   SectionName=FSEC1   Material=A992Fy50   Shape="I/Wide Flange"   t3=12   t2=5   tf=0.38   tw=0.25   t2b=5   tfb=0.38   FilletRadius=0   Area=6.61   TorsConst=0.231870449633333   I33=157.902961333333   I22=7.93130208333333   I23=0   AS2=3 _
        AS3=3.16666666666667   S33Top=26.3171602222222   S33Bot=26.3171602222222   S22Left=3.17252083333333   S22Right=3.17252083333333   Z33=29.9741   Z22=4.925625   R33=4.88758595009503   R22=1.09539692122433   CGOffset3=0   CGOffset2=0 _
        EccV2=0   EccV3=0   Cw=267.235791666667   Color=Gray8Dark   FromFile=No   AMod=1   A2Mod=1   A3Mod=1   JMod=1   I2Mod=1   I3Mod=1   MMod=1   WMod=1   GUID=7bddb185-ef26-4ebf-9af1-10a9ca9b1ae4   Notes="Added 4/20/2025 6:38:51 AM"
 
TABLE:  "FRAME SECTION PROPERTIES 13 - TIME DEPENDENT"
   SectionName=FSEC1   TypeSize=Auto   AutoSFSize=1
 
TABLE:  "FUNCTION - PLOT FUNCTIONS"
   PlotFunc="Input Energy"   Type=Energy   Component=Input   Mode=All
 
TABLE:  "FUNCTION - POWER SPECTRAL DENSITY - USER"
   Name=UNIFPSD   Frequency=0   Value=1
   Name=UNIFPSD   Frequency=1   Value=1
 
TABLE:  "FUNCTION - RESPONSE SPECTRUM - USER"
   Name=UNIFRS   Period=0   Accel=1   FuncDamp=0.05
   Name=UNIFRS   Period=1   Accel=1
 
TABLE:  "FUNCTION - STEADY STATE - USER"
   Name=UNIFSS   Frequency=0   Value=1
   Name=UNIFSS   Frequency=1   Value=1
 
TABLE:  "FUNCTION - TIME HISTORY - USER"
   Name=RAMPTH   Time=0   Value=0
   Name=RAMPTH   Time=1   Value=1
   Name=RAMPTH   Time=4   Value=1
   Name=UNIFTH   Time=0   Value=1
   Name=UNIFTH   Time=1   Value=1
 
TABLE:  "GRID LINES"
   CoordSys=GLOBAL   AxisDir=X   XRYZCoord=0   LineType=Primary   LineColor=Gray8Dark   Visible=Yes   BubbleLoc=End   AllVisible=Yes   BubbleSize=96
   CoordSys=GLOBAL   AxisDir=X   XRYZCoord=78.740157480315   LineType=Primary   LineColor=Gray8Dark   Visible=Yes   BubbleLoc=End
   CoordSys=GLOBAL   AxisDir=X   XRYZCoord=157.48031496063   LineType=Primary   LineColor=Gray8Dark   Visible=Yes   BubbleLoc=End
   CoordSys=GLOBAL   AxisDir=X   XRYZCoord=236.220472440945   LineType=Primary   LineColor=Gray8Dark   Visible=Yes   BubbleLoc=End
   CoordSys=GLOBAL   AxisDir=X   XRYZCoord=314.96062992126   LineType=Primary   LineColor=Gray8Dark   Visible=Yes   BubbleLoc=End
   CoordSys=GLOBAL   AxisDir=X   XRYZCoord=393.700787401575   LineType=Primary   LineColor=Gray8Dark   Visible=Yes   BubbleLoc=End
   CoordSys=GLOBAL   AxisDir=X   XRYZCoord=472.44094488189   LineType=Primary   LineColor=Gray8Dark   Visible=Yes   BubbleLoc=End
   CoordSys=GLOBAL   AxisDir=X   XRYZCoord=551.181102362205   LineType=Primary   LineColor=Gray8Dark   Visible=Yes   BubbleLoc=End
   CoordSys=GLOBAL   AxisDir=X   XRYZCoord=629.92125984252   LineType=Primary   LineColor=Gray8Dark   Visible=Yes   BubbleLoc=End
   CoordSys=GLOBAL   AxisDir=Y   XRYZCoord=0   LineType=Primary   LineColor=Gray8Dark   Visible=Yes   BubbleLoc=Start
   CoordSys=GLOBAL   AxisDir=Z   XRYZCoord=0   LineType=Primary   LineColor=Gray8Dark   Visible=Yes   BubbleLoc=End
   CoordSys=GLOBAL   AxisDir=Z   XRYZCoord=157.48031496063   LineType=Primary   LineColor=Gray8Dark   Visible=Yes   BubbleLoc=End
   CoordSys=GLOBAL   AxisDir=Z   XRYZCoord=255.905511811024   LineType=Primary   LineColor=Gray8Dark   Visible=Yes   BubbleLoc=End
   CoordSys=GLOBAL   AxisDir=Z   XRYZCoord=354.330708661417   LineType=Primary   LineColor=Gray8Dark   Visible=Yes   BubbleLoc=End
   CoordSys=GLOBAL   AxisDir=Z   XRYZCoord=433.070866141732   LineType=Primary   LineColor=Gray8Dark   Visible=Yes   BubbleLoc=End
   CoordSys=GLOBAL   AxisDir=Z   XRYZCoord=511.811023622047   LineType=Primary   LineColor=Gray8Dark   Visible=Yes   BubbleLoc=End
   CoordSys=GLOBAL   AxisDir=Z   XRYZCoord=527.55905511811   LineType=Primary   LineColor=Gray8Dark   Visible=Yes   BubbleLoc=End
   CoordSys=GLOBAL   AxisDir=Z   XRYZCoord=543.307086614173   LineType=Primary   LineColor=Gray8Dark   Visible=Yes   BubbleLoc=End
   CoordSys=GLOBAL   AxisDir=Z   XRYZCoord=559.055118110236   LineType=Primary   LineColor=Gray8Dark   Visible=Yes   BubbleLoc=End
 
TABLE:  "GROUPS 1 - DEFINITIONS"
   GroupName=ALL   Selection=Yes   SectionCut=Yes   Steel=Yes   Concrete=Yes   Aluminum=Yes   ColdFormed=Yes   Stage=Yes   Bridge=Yes   AutoSeismic=No   AutoWind=No   SelDesSteel=No   SelDesAlum=No   SelDesCold=No   MassWeight=Yes   Color=Red
 
TABLE:  "JOINT COORDINATES"
   Joint=1   CoordSys=GLOBAL   CoordType=Cartesian   XorR=0   Y=0   Z=0   SpecialJt=No   GUID=50222c23-2b7c-4672-9e71-1a171b3c1854
   Joint=2   CoordSys=GLOBAL   CoordType=Cartesian   XorR=157.48031496063   Y=0   Z=0   SpecialJt=No   GUID=f51ddcf1-c725-4344-a696-db6e4dc673ca
   Joint=3   CoordSys=GLOBAL   CoordType=Cartesian   XorR=255.905511811024   Y=0   Z=0   SpecialJt=No   GUID=f53e86ec-6e8a-4841-b96c-d2e98df11d54
   Joint=4   CoordSys=GLOBAL   CoordType=Cartesian   XorR=354.330708661417   Y=0   Z=0   SpecialJt=No   GUID=541b2668-1f6d-48b1-a6a6-a96743fc7b85
   Joint=5   CoordSys=GLOBAL   CoordType=Cartesian   XorR=433.070866141732   Y=0   Z=0   SpecialJt=No   GUID=0e2df91d-62e7-4824-91ac-35a3d7d3f4bf
   Joint=6   CoordSys=GLOBAL   CoordType=Cartesian   XorR=511.811023622047   Y=0   Z=0   SpecialJt=No   GUID=dba73a2f-5e86-4f71-84ab-82a5c9e5d6d5
   Joint=7   CoordSys=GLOBAL   CoordType=Cartesian   XorR=0   Y=0   Z=78.740157480315   SpecialJt=No   GUID=19fd8a96-3d7a-4879-a3f4-0ef44f57f3ee
   Joint=8   CoordSys=GLOBAL   CoordType=Cartesian   XorR=157.48031496063   Y=0   Z=78.740157480315   SpecialJt=No   GUID=a1dfdd74-d28d-474d-aab8-d6282654650b
   Joint=9   CoordSys=GLOBAL   CoordType=Cartesian   XorR=255.905511811024   Y=0   Z=78.740157480315   SpecialJt=No   GUID=3c2f0a1a-86b7-4e2a-bf7d-2a991c269573
   Joint=10   CoordSys=GLOBAL   CoordType=Cartesian   XorR=354.330708661417   Y=0   Z=78.740157480315   SpecialJt=No   GUID=da694721-7923-4413-84b7-f0306b123702
   Joint=11   CoordSys=GLOBAL   CoordType=Cartesian   XorR=433.070866141732   Y=0   Z=78.740157480315   SpecialJt=No   GUID=05047415-9940-40b0-88da-051c70b0d275
   Joint=12   CoordSys=GLOBAL   CoordType=Cartesian   XorR=511.811023622047   Y=0   Z=78.740157480315   SpecialJt=No   GUID=e7407527-cce6-409a-8428-157d6c731762
   Joint=13   CoordSys=GLOBAL   CoordType=Cartesian   XorR=527.55905511811   Y=0   Z=78.740157480315   SpecialJt=No   GUID=dc2b9326-9681-44e1-beab-3c7d0cf626ac
   Joint=14   CoordSys=GLOBAL   CoordType=Cartesian   XorR=0   Y=0   Z=157.48031496063   SpecialJt=No   GUID=54f19eb7-7161-415f-8e65-bcb20d6d5b34
   Joint=15   CoordSys=GLOBAL   CoordType=Cartesian   XorR=157.48031496063   Y=0   Z=157.48031496063   SpecialJt=No   GUID=f85a3e6d-deda-498e-ad32-bb558d83815d
   Joint=16   CoordSys=GLOBAL   CoordType=Cartesian   XorR=255.905511811024   Y=0   Z=157.48031496063   SpecialJt=No   GUID=eaaad195-6cf0-45f8-bfa7-07d39d75f80a
   Joint=17   CoordSys=GLOBAL   CoordType=Cartesian   XorR=354.330708661417   Y=0   Z=157.48031496063   SpecialJt=No   GUID=2e3d69d7-4f33-430b-a935-d3f5cb4608b0
   Joint=18   CoordSys=GLOBAL   CoordType=Cartesian   XorR=433.070866141732   Y=0   Z=157.48031496063   SpecialJt=No   GUID=30aaa2d6-f139-4398-a99b-320de5c6cea2
   Joint=19   CoordSys=GLOBAL   CoordType=Cartesian   XorR=511.811023622047   Y=0   Z=157.48031496063   SpecialJt=No   GUID=09ae78f8-5d5a-4b64-90f8-03750ef983ae
   Joint=20   CoordSys=GLOBAL   CoordType=Cartesian   XorR=527.55905511811   Y=0   Z=157.48031496063   SpecialJt=No   GUID=321c0733-4963-4969-9662-d95735180f80
   Joint=21   CoordSys=GLOBAL   CoordType=Cartesian   XorR=543.307086614173   Y=0   Z=157.48031496063   SpecialJt=No   GUID=3a89219c-8363-444f-8beb-7f02e55add61
   Joint=22   CoordSys=GLOBAL   CoordType=Cartesian   XorR=0   Y=0   Z=236.220472440945   SpecialJt=No   GUID=9fb0a2c6-8072-404f-84bb-a2ca29e33a62
   Joint=23   CoordSys=GLOBAL   CoordType=Cartesian   XorR=157.48031496063   Y=0   Z=236.220472440945   SpecialJt=No   GUID=a23e5c2a-b2b8-42fb-9a67-d627a21a01b2
   Joint=24   CoordSys=GLOBAL   CoordType=Cartesian   XorR=255.905511811024   Y=0   Z=236.220472440945   SpecialJt=No   GUID=08031b3c-f518-4f0b-b130-b4f572edb17a
   Joint=25   CoordSys=GLOBAL   CoordType=Cartesian   XorR=354.330708661417   Y=0   Z=236.220472440945   SpecialJt=No   GUID=d67ecafb-0f02-4da3-8e27-d38dae2e027a
   Joint=26   CoordSys=GLOBAL   CoordType=Cartesian   XorR=433.070866141732   Y=0   Z=236.220472440945   SpecialJt=No   GUID=750b4c6f-afd9-43a3-bee7-6af5c0db47da
   Joint=27   CoordSys=GLOBAL   CoordType=Cartesian   XorR=511.811023622047   Y=0   Z=236.220472440945   SpecialJt=No   GUID=d61dd9c5-9cb3-4b37-934f-4865390f2530
   Joint=28   CoordSys=GLOBAL   CoordType=Cartesian   XorR=0   Y=0   Z=314.96062992126   SpecialJt=No   GUID=158090ae-5d59-421b-bd97-aed63344833c
   Joint=29   CoordSys=GLOBAL   CoordType=Cartesian   XorR=157.48031496063   Y=0   Z=314.96062992126   SpecialJt=No   GUID=27878368-8925-4de8-81cd-be3130469e69
   Joint=30   CoordSys=GLOBAL   CoordType=Cartesian   XorR=255.905511811024   Y=0   Z=314.96062992126   SpecialJt=No   GUID=313c03bd-4c08-4f9b-96fa-f3024424d363
   Joint=31   CoordSys=GLOBAL   CoordType=Cartesian   XorR=354.330708661417   Y=0   Z=314.96062992126   SpecialJt=No   GUID=655b4951-17d1-4ce2-869a-7e1523b86d9d
   Joint=32   CoordSys=GLOBAL   CoordType=Cartesian   XorR=433.070866141732   Y=0   Z=314.96062992126   SpecialJt=No   GUID=e119890e-05eb-47e3-8a48-81cc97e0aa7c
   Joint=33   CoordSys=GLOBAL   CoordType=Cartesian   XorR=511.811023622047   Y=0   Z=314.96062992126   SpecialJt=No   GUID=26d53b6c-6607-4100-a5ae-6d10789d1409
   Joint=34   CoordSys=GLOBAL   CoordType=Cartesian   XorR=527.55905511811   Y=0   Z=314.96062992126   SpecialJt=No   GUID=8999f99a-aeba-4ebf-9e89-bfa70cf84418
   Joint=35   CoordSys=GLOBAL   CoordType=Cartesian   XorR=543.307086614173   Y=0   Z=314.96062992126   SpecialJt=No   GUID=d88a0716-040f-4f7c-8767-e27ebd5c2d21
   Joint=36   CoordSys=GLOBAL   CoordType=Cartesian   XorR=559.055118110236   Y=0   Z=314.96062992126   SpecialJt=No   GUID=5e9ab2f4-42e7-498e-affe-bfd2c87907b4
   Joint=37   CoordSys=GLOBAL   CoordType=Cartesian   XorR=0   Y=0   Z=393.700787401575   SpecialJt=No   GUID=e3ee68fc-bfc7-4488-86b5-9ccb3d3cefb5
   Joint=38   CoordSys=GLOBAL   CoordType=Cartesian   XorR=157.48031496063   Y=0   Z=393.700787401575   SpecialJt=No   GUID=f6d7a350-7e7f-424d-9d85-a0829c18244f
   Joint=39   CoordSys=GLOBAL   CoordType=Cartesian   XorR=255.905511811024   Y=0   Z=393.700787401575   SpecialJt=No   GUID=022eba08-13f7-4b93-bae0-629272dca7bf
   Joint=40   CoordSys=GLOBAL   CoordType=Cartesian   XorR=354.330708661417   Y=0   Z=393.700787401575   SpecialJt=No   GUID=857064e0-c7cd-4a3d-887c-8da21443a689
   Joint=41   CoordSys=GLOBAL   CoordType=Cartesian   XorR=433.070866141732   Y=0   Z=393.700787401575   SpecialJt=No   GUID=cc6925b5-78a6-49e3-b5fd-26e3994ef5f7
   Joint=42   CoordSys=GLOBAL   CoordType=Cartesian   XorR=511.811023622047   Y=0   Z=393.700787401575   SpecialJt=No   GUID=35254ec8-ac45-497d-8051-3cf71ad59957
   Joint=43   CoordSys=GLOBAL   CoordType=Cartesian   XorR=527.55905511811   Y=0   Z=393.700787401575   SpecialJt=No   GUID=b6fb4268-bacf-4582-b7a2-ac76b2d5b9a2
   Joint=44   CoordSys=GLOBAL   CoordType=Cartesian   XorR=543.307086614173   Y=0   Z=393.700787401575   SpecialJt=No   GUID=d99560cc-d7fc-4cc1-8358-a092edb0a2e4
 
TABLE:  "JOINT LOADS - FORCE"
   Joint=2   LoadPat=DEAD   CoordSys=GLOBAL   F1=0   F2=0   F3=-0.440924495207592   M1=0   M2=0   M3=0   GUID=315b7934-d254-4d5e-b951-5127dfbaa2d5
   Joint=3   LoadPat=DEAD   CoordSys=GLOBAL   F1=0   F2=0   F3=-0.881848990415183   M1=0   M2=0   M3=0   GUID=bfe0f66a-d683-43a0-a599-e78e3fc99d58
   Joint=4   LoadPat=DEAD   CoordSys=GLOBAL   F1=0   F2=0   F3=-0.881848990415183   M1=0   M2=0   M3=0   GUID=96667c40-6b49-4b9c-8524-e50f155992a1
   Joint=5   LoadPat=DEAD   CoordSys=GLOBAL   F1=0   F2=0   F3=-0.881848990415183   M1=0   M2=0   M3=0   GUID=f1b52ebc-ef50-4c11-bc3b-760b98f637e6
   Joint=6   LoadPat=DEAD   CoordSys=GLOBAL   F1=-0.661386742811388   F2=0   F3=0   M1=0   M2=0   M3=0   GUID=30d9fa71-ed68-43d9-bac9-2bebccfe9ac6
   Joint=8   LoadPat=DEAD   CoordSys=GLOBAL   F1=0   F2=0   F3=-0.440924495207592   M1=0   M2=0   M3=0   GUID=6cf1f4d3-5bbc-456f-9065-c4e06b46d1f8
   Joint=9   LoadPat=DEAD   CoordSys=GLOBAL   F1=0   F2=0   F3=-0.881848990415183   M1=0   M2=0   M3=0   GUID=de92df97-3de9-4ab1-943b-e3ddfd63cd8a
   Joint=10   LoadPat=DEAD   CoordSys=GLOBAL   F1=0   F2=0   F3=-0.881848990415183   M1=0   M2=0   M3=0   GUID=d5cbea6c-34c4-49e4-bb60-e2a2b8c7057f
   Joint=11   LoadPat=DEAD   CoordSys=GLOBAL   F1=0   F2=0   F3=-0.881848990415183   M1=0   M2=0   M3=0   GUID=e1eab031-89c1-45f1-ab67-4699f69a7545
   Joint=12   LoadPat=DEAD   CoordSys=GLOBAL   F1=0   F2=0   F3=-0.573201843769869   M1=0   M2=0   M3=0   GUID=08ffb62e-1191-4b8f-8779-2b723dab84a1
   Joint=13   LoadPat=DEAD   CoordSys=GLOBAL   F1=-0.661386742811388   F2=0   F3=0   M1=0   M2=0   M3=0   GUID=4bf210f4-fb68-4a29-bf55-55707a6b6034
   Joint=15   LoadPat=DEAD   CoordSys=GLOBAL   F1=0   F2=0   F3=-0.727525417092526   M1=0   M2=0   M3=0   GUID=46664237-29ae-4068-9635-00cf46592a5e
   Joint=16   LoadPat=DEAD   CoordSys=GLOBAL   F1=0   F2=0   F3=-1.43300460942467   M1=0   M2=0   M3=0   GUID=c7f863f0-49b7-43ec-9f60-ccdcab430eee
   Joint=17   LoadPat=DEAD   CoordSys=GLOBAL   F1=0   F2=0   F3=-1.43300460942467   M1=0   M2=0   M3=0   GUID=7d4bf948-a10b-41c4-8cc2-b54b17f7d0f4
   Joint=18   LoadPat=DEAD   CoordSys=GLOBAL   F1=0   F2=0   F3=-1.32277348562278   M1=0   M2=0   M3=0   GUID=af5546a6-9610-480d-bdf2-d8580053f982
   Joint=19   LoadPat=DEAD   CoordSys=GLOBAL   F1=0   F2=0   F3=-1.21254236182088   M1=0   M2=0   M3=0   GUID=13afb695-2a97-4da1-a5d5-581134991819
   Joint=21   LoadPat=DEAD   CoordSys=GLOBAL   F1=-0.661386742811388   F2=0   F3=0   M1=0   M2=0   M3=0   GUID=fa5cbb89-db2c-4e04-ac9e-3739e2e9e633
   Joint=23   LoadPat=DEAD   CoordSys=GLOBAL   F1=0   F2=0   F3=-0.661386742811388   M1=0   M2=0   M3=0   GUID=66736968-bcb5-441b-afa8-a4fc0370c736
   Joint=24   LoadPat=DEAD   CoordSys=GLOBAL   F1=0   F2=0   F3=-0.881848990415183   M1=0   M2=0   M3=0   GUID=dc916994-752c-4f29-bbf4-b75bb3612de4
   Joint=25   LoadPat=DEAD   CoordSys=GLOBAL   F1=0   F2=0   F3=-0.881848990415183   M1=0   M2=0   M3=0   GUID=62cac487-308f-4238-a9cd-22bb3ed4b88d
   Joint=26   LoadPat=DEAD   CoordSys=GLOBAL   F1=0   F2=0   F3=-0.881848990415183   M1=0   M2=0   M3=0   GUID=0933c4ce-314e-452e-8d40-b6dc703ca526
   Joint=27   LoadPat=DEAD   CoordSys=GLOBAL   F1=-0.661386742811388   F2=0   F3=0   M1=0   M2=0   M3=0   GUID=2f8cdf8c-cbd4-4c00-989a-98eeeb8759e0
   Joint=29   LoadPat=DEAD   CoordSys=GLOBAL   F1=0   F2=0   F3=-0.50706316948873   M1=0   M2=0   M3=0   GUID=6a7f53a5-cfa9-4eb0-a1ca-d41c70b789a5
   Joint=30   LoadPat=DEAD   CoordSys=GLOBAL   F1=0   F2=0   F3=-1.01412633897746   M1=0   M2=0   M3=0   GUID=671b0d70-2b2f-406e-a48b-033c3e83b51a
   Joint=31   LoadPat=DEAD   CoordSys=GLOBAL   F1=0   F2=0   F3=-1.01412633897746   M1=0   M2=0   M3=0   GUID=1971a4e9-8d1b-41ce-9fdd-bd29fad17d8b
   Joint=32   LoadPat=DEAD   CoordSys=GLOBAL   F1=0   F2=0   F3=-0.881848990415183   M1=0   M2=0   M3=0   GUID=e5cca47d-fa88-4984-888b-a606cd792dba
   Joint=33   LoadPat=DEAD   CoordSys=GLOBAL   F1=0   F2=0   F3=-0.881848990415183   M1=0   M2=0   M3=0   GUID=faf32cf1-555c-4664-b9d8-881a5563257d
   Joint=36   LoadPat=DEAD   CoordSys=GLOBAL   F1=-0.661386742811388   F2=0   F3=0   M1=0   M2=0   M3=0   GUID=b9b55329-01d2-4713-b2b5-1e298dcde254
   Joint=38   LoadPat=DEAD   CoordSys=GLOBAL   F1=0   F2=0   F3=-0.462970719967971   M1=0   M2=0   M3=0   GUID=12f8222e-2d29-461b-bb73-9c4cb2e9d24a
   Joint=39   LoadPat=DEAD   CoordSys=GLOBAL   F1=0   F2=0   F3=-0.947987664696322   M1=0   M2=0   M3=0   GUID=cbcbf75b-1db2-4046-892f-642d6d94e05f
   Joint=40   LoadPat=DEAD   CoordSys=GLOBAL   F1=0   F2=0   F3=-0.947987664696322   M1=0   M2=0   M3=0   GUID=7eabba8d-52f0-4763-a352-17a271be8763
   Joint=41   LoadPat=DEAD   CoordSys=GLOBAL   F1=0   F2=0   F3=-0.881848990415183   M1=0   M2=0   M3=0   GUID=656df551-ff9a-41e3-8781-b387b62b9f81
   Joint=42   LoadPat=DEAD   CoordSys=GLOBAL   F1=0   F2=0   F3=-0.661386742811388   M1=0   M2=0   M3=0   GUID=5aaebfa1-6d1d-407d-8f0b-f915b6954b10
   Joint=44   LoadPat=DEAD   CoordSys=GLOBAL   F1=-0.661386742811388   F2=0   F3=0   M1=0   M2=0   M3=0   GUID=edcf02c8-2b2f-4fbf-a982-f359bb10b1f5
 
TABLE:  "JOINT PATTERN DEFINITIONS"
   Pattern=Default
 
TABLE:  "JOINT RESTRAINT ASSIGNMENTS"
   Joint=1   U1=Yes   U2=Yes   U3=Yes   R1=No   R2=No   R3=No
   Joint=6   U1=No   U2=No   U3=Yes   R1=No   R2=No   R3=No
   Joint=7   U1=Yes   U2=Yes   U3=Yes   R1=No   R2=No   R3=No
   Joint=13   U1=No   U2=No   U3=Yes   R1=No   R2=No   R3=No
   Joint=14   U1=Yes   U2=Yes   U3=Yes   R1=No   R2=No   R3=No
   Joint=21   U1=No   U2=No   U3=Yes   R1=No   R2=No   R3=No
   Joint=22   U1=Yes   U2=Yes   U3=Yes   R1=No   R2=No   R3=No
   Joint=27   U1=No   U2=No   U3=Yes   R1=No   R2=No   R3=No
   Joint=28   U1=Yes   U2=Yes   U3=Yes   R1=No   R2=No   R3=No
   Joint=36   U1=No   U2=No   U3=Yes   R1=No   R2=No   R3=No
   Joint=37   U1=Yes   U2=Yes   U3=Yes   R1=No   R2=No   R3=No
   Joint=44   U1=No   U2=No   U3=Yes   R1=No   R2=No   R3=No
 
TABLE:  "LOAD CASE DEFINITIONS"
   Case=DEAD   Type=LinStatic   InitialCond=Zero   DesTypeOpt="Prog Det"   DesignType=Dead   DesActOpt="Prog Det"   DesignAct=Non-Composite   AutoType=None   RunCase=Yes   GUID=d259c737-5c6c-41b9-a413-5910a221db0d
   Case=MODAL   Type=LinModal   InitialCond=Zero   DesTypeOpt="Prog Det"   DesignType=Other   DesActOpt="Prog Det"   DesignAct=Other   AutoType=None   RunCase=Yes   GUID=9e7e5bfa-90ce-44e0-bd17-25e8643b8c85
 
TABLE:  "LOAD PATTERN DEFINITIONS"
   LoadPat=DEAD   DesignType=Dead   SelfWtMult=1   GUID=ba3e5544-152a-4535-aff2-5d041674be55
 
TABLE:  "MASS SOURCE"
   MassSource=MSSSRC1   Elements=Yes   Masses=Yes   Loads=No   IsDefault=Yes
 
TABLE:  "MATERIAL PROPERTIES 01 - GENERAL"
   Material=4000Psi   Type=Concrete   Grade="f'c 4000 psi"   SymType=Isotropic   TempDepend=No   Color=Yellow   GUID=24d0a328-6865-4f47-834e-a5227d3a763d   Notes="Customary f'c 4000 psi 4/20/2025 6:35:17 AM"
   Material=A416Gr270   Type=Tendon   Grade="Grade 270"   SymType=Uniaxial   TempDepend=No   Color=Magenta   GUID=7964574f-e22f-4ff7-9ea8-f61e032666ec   Notes="ASTM A416 Grade 270 4/20/2025 3:12:13 PM"
   Material=A992Fy50   Type=Steel   Grade="Grade 50"   SymType=Isotropic   TempDepend=No   Color=Magenta   GUID=9c4d92e8-6b3d-4f6b-a075-ad6b8df5674c   Notes="ASTM A992 Grade 50 4/20/2025 6:35:17 AM"
 
TABLE:  "MATERIAL PROPERTIES 02 - BASIC MECHANICAL PROPERTIES"
   Material=4000Psi   UnitWeight=8.680555556E-05   UnitMass=2.248332521E-07   E1=3604.9965   G12=1502.081875   U12=0.2   A1=5.5E-06
   Material=A416Gr270   UnitWeight=0.000283564814814815   UnitMass=7.34455290352564E-07   E1=28500   A1=6.5E-06
   Material=A992Fy50   UnitWeight=0.000283564814814815   UnitMass=7.34455290352564E-07   E1=29000   G12=11153.8461538462   U12=0.3   A1=6.5E-06
 
TABLE:  "MATERIAL PROPERTIES 03A - STEEL DATA"
   Material=A992Fy50   Fy=50   Fu=65   EffFy=55   EffFu=71.5   SSCurveOpt=Simple   SSHysType=Kinematic   SHard=0.015   SMax=0.11   SRup=0.17   FinalSlope=-0.1   CoupModType="Von Mises"
 
TABLE:  "MATERIAL PROPERTIES 03B - CONCRETE DATA"
   Material=4000Psi   Fc=4   eFc=4   LtWtConc=No   SSCurveOpt=Mander   SSHysType=Takeda   SFc=0.00221914   SCap=0.005   FinalSlope=-0.1   FAngle=0   DAngle=0   CoupModType="Modified Darwin-Pecknold"
 
TABLE:  "MATERIAL PROPERTIES 03F - TENDON DATA"
   Material=A416Gr270   Fy=245.1   Fu=270   SSCurveOpt="270 ksi"   SSHysType=Kinematic   FinalSlope=-0.1   CoupModType="Von Mises"
 
TABLE:  "MATERIAL PROPERTIES 03J - COUPLED NONLINEAR VON MISES DATA"
   Material=A416Gr270   YieldStress=245.1   LinIsoHard=No   LinKinHard=No   NLIsoSaHard=No
   Material=A992Fy50   YieldStress=55   LinIsoHard=No   LinKinHard=No   NLIsoSaHard=No
 
TABLE:  "MATERIAL PROPERTIES 06 - DAMPING PARAMETERS"
   Material=4000Psi   ModalRatio=0   VisMass=0   VisStiff=0   HysMass=0   HysStiff=0
   Material=A416Gr270   ModalRatio=0   VisMass=0   VisStiff=0   HysMass=0   HysStiff=0
   Material=A992Fy50   ModalRatio=0   VisMass=0   VisStiff=0   HysMass=0   HysStiff=0
 
TABLE:  "MATERIAL PROPERTIES 09 - ACCEPTANCE CRITERIA"
   Material=4000Psi   IOTens=0.01   LSTens=0.02   CPTens=0.05   IOComp=-0.003   LSComp=-0.006   CPComp=-0.015   IgnoreTens=Yes
   Material=A416Gr270   IOTens=0.015   LSTens=0.023   CPTens=0.03   IOComp=-0.015   LSComp=-0.023   CPComp=-0.03
   Material=A992Fy50   IOTens=0.01   LSTens=0.02   CPTens=0.05   IOComp=-0.005   LSComp=-0.01   CPComp=-0.02
 
TABLE:  "OPTIONS - COLORS - DISPLAY"
   DeviceType=Screen   Points=Yellow   LinesFrame=Yellow   LinesFrmDL=Yellow   LinesCable=Green   LinesTendon=Green   SpringLinks=Green   Restraints=Green   Releases=Green   Axes=Cyan   Text=Green   ShadowLines=Gray8Dark _
        GuideLines=Gray8Dark   Highlight=Red   Selection=White   AreaFillBot=Red   AreaFillTop=16744703   AreaFillSd=Red   AreaEdge=DarkRed   SolidF1=Red   SolidF2=Blue   SolidF3=Green   SolidF4=Yellow   SolidF5=White   SolidF6=Cyan _
        SolidEdge=DarkRed   Floor=Gray4   Background=Black   BGLowLeft=Black   BGLowRight=Black   BGUpRight=Black   Darkness=0.5
   DeviceType=Printer   Points=Gray8Dark   LinesFrame=Black   LinesFrmDL=Gray4   LinesCable=Black   LinesTendon=Black   SpringLinks=Gray8Dark   Restraints=Gray8Dark   Releases=Gray4   Axes=Black   Text=Black   ShadowLines=Gray4 _
        GuideLines=Gray4   Highlight=Black   Selection=Black   AreaFillBot=Gray4   AreaFillTop=Gray8Dark   AreaFillSd=Gray4   AreaEdge=Black   SolidF1=Gray1Light   SolidF2=Gray2   SolidF3=Gray3   SolidF4=Gray4   SolidF5=Gray5 _
        SolidF6=Gray6   SolidEdge=Black   Floor=Gray4   Background=White   BGLowLeft=White   BGLowRight=White   BGUpRight=White   Darkness=0.5
   DeviceType="Color Printer"   Points=Blue   LinesFrame=Blue   LinesFrmDL=Blue   LinesCable=Green   LinesTendon=Green   SpringLinks=Green   Restraints=Green   Releases=Green   Axes=Cyan   Text=Black   ShadowLines=Gray8Dark _
        GuideLines=Gray8Dark   Highlight=Red   Selection=10504778   AreaFillBot=Red   AreaFillTop=16744703   AreaFillSd=Red   AreaEdge=DarkRed   SolidF1=Red   SolidF2=Blue   SolidF3=Green   SolidF4=Yellow   SolidF5=White   SolidF6=Cyan _
        SolidEdge=DarkRed   Floor=Gray4   Background=White   BGLowLeft=White   BGLowRight=White   BGUpRight=White   Darkness=0.5
 
TABLE:  "OPTIONS - COLORS - OUTPUT"
   DeviceType=Screen   Contour1=13107400   Contour2=6553828   Contour3=Red   Contour4=16639   Contour5=Orange   Contour6=43775   Contour7=54527   Contour8=Yellow   Contour9=65408   Contour10=Green   Contour11=8453888   Contour12=Cyan _
        Contour13=16755200   Contour14=16733440   Contour15=Blue   Transpare=0   Ratio1=Cyan   Ratio2=Green   Ratio3=Yellow   Ratio4=Orange   Ratio5=Red   RatioNotD=Gray4   RatioNotC=Red   RatioVal1=0.5   RatioVal2=0.7   RatioVal3=0.9 _
        RatioVal4=1   DFillPos=Blue   DFillNeg=Red   DFillRPos=9498256   DFillRNeg=9498256
   DeviceType=Printer   Contour1=Black   Contour2=3158064   Contour3=4210752   Contour4=5263440   Contour5=6316128   Contour6=7368816   Contour7=Gray8Dark   Contour8=Gray7   Contour9=Gray6   Contour10=Gray5   Contour11=Gray4 _
        Contour12=Gray3   Contour13=Gray2   Contour14=Gray1Light   Contour15=White   Transpare=0   Ratio1=Gray2   Ratio2=Gray4   Ratio3=Gray8Dark   Ratio4=4210752   Ratio5=Black   RatioNotD=Gray4   RatioNotC=Black   RatioVal1=0.5 _
        RatioVal2=0.7   RatioVal3=0.9   RatioVal4=1   DFillPos=Gray8Dark   DFillNeg=Gray8Dark   DFillRPos=4210752   DFillRNeg=4210752
   DeviceType="Color Printer"   Contour1=13107400   Contour2=6553828   Contour3=Red   Contour4=16639   Contour5=Orange   Contour6=43775   Contour7=54527   Contour8=Yellow   Contour9=65408   Contour10=Green   Contour11=8453888 _
        Contour12=Cyan   Contour13=16755200   Contour14=16733440   Contour15=Blue   Transpare=0   Ratio1=Cyan   Ratio2=Green   Ratio3=Yellow   Ratio4=Orange   Ratio5=Red   RatioNotD=Gray4   RatioNotC=Red   RatioVal1=0.5   RatioVal2=0.7 _
        RatioVal3=0.9   RatioVal4=1   DFillPos=Blue   DFillNeg=Red   DFillRPos=9498256   DFillRNeg=9498256
 
TABLE:  "OVERWRITES - STEEL DESIGN - AISC 360-16"
   Frame=1   DesignSect="Program Determined"   FrameType="Program Determined"   Fy=0   RLLF=0   AreaRatio=0   XLMajor=0   XLMinor=0   XLLTB=0   K1Major=0   K1Minor=0   K2Major=0   K2Minor=0   KLTB=0   CmMajor=0   CmMinor=0   Cb=0 _
        B1Major=0   B1Minor=0   B2Major=0   B2Minor=0   HSSReduceT="Program Determined"   HSSWelding="Program Determined"   Omega0=0   Ry=0   Pnc=0   Pnt=0   Mn3=0   Mn2=0   Vn2=0   Vn3=0   CheckDefl="Program Determined" _
        DeflType="Program Determined"   DLRat=0   SDLAndLLRat=0   LLRat=0   TotalRat=0   NetRat=0   DLAbs=0   SDLAndLLAbs=0   LLAbs=0   TotalAbs=0   NetAbs=0   SpecCamber=0   DCLimit=0
   Frame=2   DesignSect="Program Determined"   FrameType="Program Determined"   Fy=0   RLLF=0   AreaRatio=0   XLMajor=0   XLMinor=0   XLLTB=0   K1Major=0   K1Minor=0   K2Major=0   K2Minor=0   KLTB=0   CmMajor=0   CmMinor=0   Cb=0 _
        B1Major=0   B1Minor=0   B2Major=0   B2Minor=0   HSSReduceT="Program Determined"   HSSWelding="Program Determined"   Omega0=0   Ry=0   Pnc=0   Pnt=0   Mn3=0   Mn2=0   Vn2=0   Vn3=0   CheckDefl="Program Determined" _
        DeflType="Program Determined"   DLRat=0   SDLAndLLRat=0   LLRat=0   TotalRat=0   NetRat=0   DLAbs=0   SDLAndLLAbs=0   LLAbs=0   TotalAbs=0   NetAbs=0   SpecCamber=0   DCLimit=0
   Frame=3   DesignSect="Program Determined"   FrameType="Program Determined"   Fy=0   RLLF=0   AreaRatio=0   XLMajor=0   XLMinor=0   XLLTB=0   K1Major=0   K1Minor=0   K2Major=0   K2Minor=0   KLTB=0   CmMajor=0   CmMinor=0   Cb=0 _
        B1Major=0   B1Minor=0   B2Major=0   B2Minor=0   HSSReduceT="Program Determined"   HSSWelding="Program Determined"   Omega0=0   Ry=0   Pnc=0   Pnt=0   Mn3=0   Mn2=0   Vn2=0   Vn3=0   CheckDefl="Program Determined" _
        DeflType="Program Determined"   DLRat=0   SDLAndLLRat=0   LLRat=0   TotalRat=0   NetRat=0   DLAbs=0   SDLAndLLAbs=0   LLAbs=0   TotalAbs=0   NetAbs=0   SpecCamber=0   DCLimit=0
   Frame=4   DesignSect="Program Determined"   FrameType="Program Determined"   Fy=0   RLLF=0   AreaRatio=0   XLMajor=0   XLMinor=0   XLLTB=0   K1Major=0   K1Minor=0   K2Major=0   K2Minor=0   KLTB=0   CmMajor=0   CmMinor=0   Cb=0 _
        B1Major=0   B1Minor=0   B2Major=0   B2Minor=0   HSSReduceT="Program Determined"   HSSWelding="Program Determined"   Omega0=0   Ry=0   Pnc=0   Pnt=0   Mn3=0   Mn2=0   Vn2=0   Vn3=0   CheckDefl="Program Determined" _
        DeflType="Program Determined"   DLRat=0   SDLAndLLRat=0   LLRat=0   TotalRat=0   NetRat=0   DLAbs=0   SDLAndLLAbs=0   LLAbs=0   TotalAbs=0   NetAbs=0   SpecCamber=0   DCLimit=0
   Frame=5   DesignSect="Program Determined"   FrameType="Program Determined"   Fy=0   RLLF=0   AreaRatio=0   XLMajor=0   XLMinor=0   XLLTB=0   K1Major=0   K1Minor=0   K2Major=0   K2Minor=0   KLTB=0   CmMajor=0   CmMinor=0   Cb=0 _
        B1Major=0   B1Minor=0   B2Major=0   B2Minor=0   HSSReduceT="Program Determined"   HSSWelding="Program Determined"   Omega0=0   Ry=0   Pnc=0   Pnt=0   Mn3=0   Mn2=0   Vn2=0   Vn3=0   CheckDefl="Program Determined" _
        DeflType="Program Determined"   DLRat=0   SDLAndLLRat=0   LLRat=0   TotalRat=0   NetRat=0   DLAbs=0   SDLAndLLAbs=0   LLAbs=0   TotalAbs=0   NetAbs=0   SpecCamber=0   DCLimit=0
   Frame=6   DesignSect="Program Determined"   FrameType="Program Determined"   Fy=0   RLLF=0   AreaRatio=0   XLMajor=0   XLMinor=0   XLLTB=0   K1Major=0   K1Minor=0   K2Major=0   K2Minor=0   KLTB=0   CmMajor=0   CmMinor=0   Cb=0 _
        B1Major=0   B1Minor=0   B2Major=0   B2Minor=0   HSSReduceT="Program Determined"   HSSWelding="Program Determined"   Omega0=0   Ry=0   Pnc=0   Pnt=0   Mn3=0   Mn2=0   Vn2=0   Vn3=0   CheckDefl="Program Determined" _
        DeflType="Program Determined"   DLRat=0   SDLAndLLRat=0   LLRat=0   TotalRat=0   NetRat=0   DLAbs=0   SDLAndLLAbs=0   LLAbs=0   TotalAbs=0   NetAbs=0   SpecCamber=0   DCLimit=0
   Frame=7   DesignSect="Program Determined"   FrameType="Program Determined"   Fy=0   RLLF=0   AreaRatio=0   XLMajor=0   XLMinor=0   XLLTB=0   K1Major=0   K1Minor=0   K2Major=0   K2Minor=0   KLTB=0   CmMajor=0   CmMinor=0   Cb=0 _
        B1Major=0   B1Minor=0   B2Major=0   B2Minor=0   HSSReduceT="Program Determined"   HSSWelding="Program Determined"   Omega0=0   Ry=0   Pnc=0   Pnt=0   Mn3=0   Mn2=0   Vn2=0   Vn3=0   CheckDefl="Program Determined" _
        DeflType="Program Determined"   DLRat=0   SDLAndLLRat=0   LLRat=0   TotalRat=0   NetRat=0   DLAbs=0   SDLAndLLAbs=0   LLAbs=0   TotalAbs=0   NetAbs=0   SpecCamber=0   DCLimit=0
   Frame=8   DesignSect="Program Determined"   FrameType="Program Determined"   Fy=0   RLLF=0   AreaRatio=0   XLMajor=0   XLMinor=0   XLLTB=0   K1Major=0   K1Minor=0   K2Major=0   K2Minor=0   KLTB=0   CmMajor=0   CmMinor=0   Cb=0 _
        B1Major=0   B1Minor=0   B2Major=0   B2Minor=0   HSSReduceT="Program Determined"   HSSWelding="Program Determined"   Omega0=0   Ry=0   Pnc=0   Pnt=0   Mn3=0   Mn2=0   Vn2=0   Vn3=0   CheckDefl="Program Determined" _
        DeflType="Program Determined"   DLRat=0   SDLAndLLRat=0   LLRat=0   TotalRat=0   NetRat=0   DLAbs=0   SDLAndLLAbs=0   LLAbs=0   TotalAbs=0   NetAbs=0   SpecCamber=0   DCLimit=0
   Frame=9   DesignSect="Program Determined"   FrameType="Program Determined"   Fy=0   RLLF=0   AreaRatio=0   XLMajor=0   XLMinor=0   XLLTB=0   K1Major=0   K1Minor=0   K2Major=0   K2Minor=0   KLTB=0   CmMajor=0   CmMinor=0   Cb=0 _
        B1Major=0   B1Minor=0   B2Major=0   B2Minor=0   HSSReduceT="Program Determined"   HSSWelding="Program Determined"   Omega0=0   Ry=0   Pnc=0   Pnt=0   Mn3=0   Mn2=0   Vn2=0   Vn3=0   CheckDefl="Program Determined" _
        DeflType="Program Determined"   DLRat=0   SDLAndLLRat=0   LLRat=0   TotalRat=0   NetRat=0   DLAbs=0   SDLAndLLAbs=0   LLAbs=0   TotalAbs=0   NetAbs=0   SpecCamber=0   DCLimit=0
   Frame=10   DesignSect="Program Determined"   FrameType="Program Determined"   Fy=0   RLLF=0   AreaRatio=0   XLMajor=0   XLMinor=0   XLLTB=0   K1Major=0   K1Minor=0   K2Major=0   K2Minor=0   KLTB=0   CmMajor=0   CmMinor=0   Cb=0 _
        B1Major=0   B1Minor=0   B2Major=0   B2Minor=0   HSSReduceT="Program Determined"   HSSWelding="Program Determined"   Omega0=0   Ry=0   Pnc=0   Pnt=0   Mn3=0   Mn2=0   Vn2=0   Vn3=0   CheckDefl="Program Determined" _
        DeflType="Program Determined"   DLRat=0   SDLAndLLRat=0   LLRat=0   TotalRat=0   NetRat=0   DLAbs=0   SDLAndLLAbs=0   LLAbs=0   TotalAbs=0   NetAbs=0   SpecCamber=0   DCLimit=0
   Frame=11   DesignSect="Program Determined"   FrameType="Program Determined"   Fy=0   RLLF=0   AreaRatio=0   XLMajor=0   XLMinor=0   XLLTB=0   K1Major=0   K1Minor=0   K2Major=0   K2Minor=0   KLTB=0   CmMajor=0   CmMinor=0   Cb=0 _
        B1Major=0   B1Minor=0   B2Major=0   B2Minor=0   HSSReduceT="Program Determined"   HSSWelding="Program Determined"   Omega0=0   Ry=0   Pnc=0   Pnt=0   Mn3=0   Mn2=0   Vn2=0   Vn3=0   CheckDefl="Program Determined" _
        DeflType="Program Determined"   DLRat=0   SDLAndLLRat=0   LLRat=0   TotalRat=0   NetRat=0   DLAbs=0   SDLAndLLAbs=0   LLAbs=0   TotalAbs=0   NetAbs=0   SpecCamber=0   DCLimit=0
   Frame=12   DesignSect="Program Determined"   FrameType="Program Determined"   Fy=0   RLLF=0   AreaRatio=0   XLMajor=0   XLMinor=0   XLLTB=0   K1Major=0   K1Minor=0   K2Major=0   K2Minor=0   KLTB=0   CmMajor=0   CmMinor=0   Cb=0 _
        B1Major=0   B1Minor=0   B2Major=0   B2Minor=0   HSSReduceT="Program Determined"   HSSWelding="Program Determined"   Omega0=0   Ry=0   Pnc=0   Pnt=0   Mn3=0   Mn2=0   Vn2=0   Vn3=0   CheckDefl="Program Determined" _
        DeflType="Program Determined"   DLRat=0   SDLAndLLRat=0   LLRat=0   TotalRat=0   NetRat=0   DLAbs=0   SDLAndLLAbs=0   LLAbs=0   TotalAbs=0   NetAbs=0   SpecCamber=0   DCLimit=0
   Frame=13   DesignSect="Program Determined"   FrameType="Program Determined"   Fy=0   RLLF=0   AreaRatio=0   XLMajor=0   XLMinor=0   XLLTB=0   K1Major=0   K1Minor=0   K2Major=0   K2Minor=0   KLTB=0   CmMajor=0   CmMinor=0   Cb=0 _
        B1Major=0   B1Minor=0   B2Major=0   B2Minor=0   HSSReduceT="Program Determined"   HSSWelding="Program Determined"   Omega0=0   Ry=0   Pnc=0   Pnt=0   Mn3=0   Mn2=0   Vn2=0   Vn3=0   CheckDefl="Program Determined" _
        DeflType="Program Determined"   DLRat=0   SDLAndLLRat=0   LLRat=0   TotalRat=0   NetRat=0   DLAbs=0   SDLAndLLAbs=0   LLAbs=0   TotalAbs=0   NetAbs=0   SpecCamber=0   DCLimit=0
   Frame=14   DesignSect="Program Determined"   FrameType="Program Determined"   Fy=0   RLLF=0   AreaRatio=0   XLMajor=0   XLMinor=0   XLLTB=0   K1Major=0   K1Minor=0   K2Major=0   K2Minor=0   KLTB=0   CmMajor=0   CmMinor=0   Cb=0 _
        B1Major=0   B1Minor=0   B2Major=0   B2Minor=0   HSSReduceT="Program Determined"   HSSWelding="Program Determined"   Omega0=0   Ry=0   Pnc=0   Pnt=0   Mn3=0   Mn2=0   Vn2=0   Vn3=0   CheckDefl="Program Determined" _
        DeflType="Program Determined"   DLRat=0   SDLAndLLRat=0   LLRat=0   TotalRat=0   NetRat=0   DLAbs=0   SDLAndLLAbs=0   LLAbs=0   TotalAbs=0   NetAbs=0   SpecCamber=0   DCLimit=0
   Frame=15   DesignSect="Program Determined"   FrameType="Program Determined"   Fy=0   RLLF=0   AreaRatio=0   XLMajor=0   XLMinor=0   XLLTB=0   K1Major=0   K1Minor=0   K2Major=0   K2Minor=0   KLTB=0   CmMajor=0   CmMinor=0   Cb=0 _
        B1Major=0   B1Minor=0   B2Major=0   B2Minor=0   HSSReduceT="Program Determined"   HSSWelding="Program Determined"   Omega0=0   Ry=0   Pnc=0   Pnt=0   Mn3=0   Mn2=0   Vn2=0   Vn3=0   CheckDefl="Program Determined" _
        DeflType="Program Determined"   DLRat=0   SDLAndLLRat=0   LLRat=0   TotalRat=0   NetRat=0   DLAbs=0   SDLAndLLAbs=0   LLAbs=0   TotalAbs=0   NetAbs=0   SpecCamber=0   DCLimit=0
   Frame=16   DesignSect="Program Determined"   FrameType="Program Determined"   Fy=0   RLLF=0   AreaRatio=0   XLMajor=0   XLMinor=0   XLLTB=0   K1Major=0   K1Minor=0   K2Major=0   K2Minor=0   KLTB=0   CmMajor=0   CmMinor=0   Cb=0 _
        B1Major=0   B1Minor=0   B2Major=0   B2Minor=0   HSSReduceT="Program Determined"   HSSWelding="Program Determined"   Omega0=0   Ry=0   Pnc=0   Pnt=0   Mn3=0   Mn2=0   Vn2=0   Vn3=0   CheckDefl="Program Determined" _
        DeflType="Program Determined"   DLRat=0   SDLAndLLRat=0   LLRat=0   TotalRat=0   NetRat=0   DLAbs=0   SDLAndLLAbs=0   LLAbs=0   TotalAbs=0   NetAbs=0   SpecCamber=0   DCLimit=0
   Frame=17   DesignSect="Program Determined"   FrameType="Program Determined"   Fy=0   RLLF=0   AreaRatio=0   XLMajor=0   XLMinor=0   XLLTB=0   K1Major=0   K1Minor=0   K2Major=0   K2Minor=0   KLTB=0   CmMajor=0   CmMinor=0   Cb=0 _
        B1Major=0   B1Minor=0   B2Major=0   B2Minor=0   HSSReduceT="Program Determined"   HSSWelding="Program Determined"   Omega0=0   Ry=0   Pnc=0   Pnt=0   Mn3=0   Mn2=0   Vn2=0   Vn3=0   CheckDefl="Program Determined" _
        DeflType="Program Determined"   DLRat=0   SDLAndLLRat=0   LLRat=0   TotalRat=0   NetRat=0   DLAbs=0   SDLAndLLAbs=0   LLAbs=0   TotalAbs=0   NetAbs=0   SpecCamber=0   DCLimit=0
   Frame=18   DesignSect="Program Determined"   FrameType="Program Determined"   Fy=0   RLLF=0   AreaRatio=0   XLMajor=0   XLMinor=0   XLLTB=0   K1Major=0   K1Minor=0   K2Major=0   K2Minor=0   KLTB=0   CmMajor=0   CmMinor=0   Cb=0 _
        B1Major=0   B1Minor=0   B2Major=0   B2Minor=0   HSSReduceT="Program Determined"   HSSWelding="Program Determined"   Omega0=0   Ry=0   Pnc=0   Pnt=0   Mn3=0   Mn2=0   Vn2=0   Vn3=0   CheckDefl="Program Determined" _
        DeflType="Program Determined"   DLRat=0   SDLAndLLRat=0   LLRat=0   TotalRat=0   NetRat=0   DLAbs=0   SDLAndLLAbs=0   LLAbs=0   TotalAbs=0   NetAbs=0   SpecCamber=0   DCLimit=0
   Frame=19   DesignSect="Program Determined"   FrameType="Program Determined"   Fy=0   RLLF=0   AreaRatio=0   XLMajor=0   XLMinor=0   XLLTB=0   K1Major=0   K1Minor=0   K2Major=0   K2Minor=0   KLTB=0   CmMajor=0   CmMinor=0   Cb=0 _
        B1Major=0   B1Minor=0   B2Major=0   B2Minor=0   HSSReduceT="Program Determined"   HSSWelding="Program Determined"   Omega0=0   Ry=0   Pnc=0   Pnt=0   Mn3=0   Mn2=0   Vn2=0   Vn3=0   CheckDefl="Program Determined" _
        DeflType="Program Determined"   DLRat=0   SDLAndLLRat=0   LLRat=0   TotalRat=0   NetRat=0   DLAbs=0   SDLAndLLAbs=0   LLAbs=0   TotalAbs=0   NetAbs=0   SpecCamber=0   DCLimit=0
   Frame=20   DesignSect="Program Determined"   FrameType="Program Determined"   Fy=0   RLLF=0   AreaRatio=0   XLMajor=0   XLMinor=0   XLLTB=0   K1Major=0   K1Minor=0   K2Major=0   K2Minor=0   KLTB=0   CmMajor=0   CmMinor=0   Cb=0 _
        B1Major=0   B1Minor=0   B2Major=0   B2Minor=0   HSSReduceT="Program Determined"   HSSWelding="Program Determined"   Omega0=0   Ry=0   Pnc=0   Pnt=0   Mn3=0   Mn2=0   Vn2=0   Vn3=0   CheckDefl="Program Determined" _
        DeflType="Program Determined"   DLRat=0   SDLAndLLRat=0   LLRat=0   TotalRat=0   NetRat=0   DLAbs=0   SDLAndLLAbs=0   LLAbs=0   TotalAbs=0   NetAbs=0   SpecCamber=0   DCLimit=0
# ... 54 like lines cut
 
TABLE:  "PREFERENCES - ALUMINUM DESIGN - AA 2015"
   THDesign=Envelopes   SRatioLimit=1   Provision=LRFD   LatFact=1.33333333333333   UseLatFact=No   Bridge=No   PhiTy=0.9   PhiTr=0.75   PhiC=0.9   PhiBo=0.9   PhiBr=0.75   PhiVo=0.9   PhiVr=0.75
 
TABLE:  "PREFERENCES - COLD FORMED DESIGN - AISI-16"
   THDesign=Envelopes   FrameType="Braced Frame"   SRatioLimit=1   SOMethod="General 2nd Order"   Provision=LRFD   LatFact=1.33333333333333   UseLatFact=No   PhiTy=0.9   PhiTr=0.75   PhiC=0.85   PhiB=0.9   PhiBPipe=0.95   PhiV=0.95
 
TABLE:  "PREFERENCES - CONCRETE DESIGN - ACI 318-19"
   THDesign=Envelopes   NumCurves=24   NumPoints=11   MinEccen=Yes   BCCDesign=Yes   IgnoreBPu=Yes   CTorsion=Yes   PatLLF=0.75   UFLimit=0.95   SeisCat=D   Rho=1   Sds=0.5   PhiT=0.9   PhiCTied=0.65   PhiCSpiral=0.75   PhiV=0.75 _
        PhiVSeismic=0.6   PhiVJoint=0.85   TanTheta=1
 
TABLE:  "PREFERENCES - CONCRETE SHELL DESIGN - EUROCODE 2-2004"
   Country="CEN Default"   GammaS=1.15   GammaC=1.5   AlphaCC=1   AlphaCT=1   CrackCond="Program Determined"   ShrDesMet="Method 1"   CotTheta=1   AddTenForce=Yes
 
TABLE:  "PREFERENCES - DIMENSIONAL"
   MergeTol=0.1   FineGrid=12   Nudge=12   SelectTol=3   SnapTol=12   SLineThick=2   PLineThick=4   MaxFont=12   MinFont=6   AutoZoom=10   ShrinkFact=70   TextFileLen=240
 
TABLE:  "PREFERENCES - STEEL DESIGN - AISC 360-16"
   THDesign=Envelopes   FrameType=SMF   PatLLF=0.75   SRatioLimit=0.95   MaxIter=1   SDC=D   SeisCode=No   SeisLoad=No   ImpFactor=1   SystemRho=1   SystemSds=0.5   SystemR=8   SystemCd=5.5   Omega0=3   Provision=LRFD _
        AMethod="Direct Analysis"   SOMethod="General 2nd Order"   SRMethod="Tau-b Fixed"   NLCoeff=0.002   PhiB=0.9   PhiC=0.9   PhiTY=0.9   PhiTF=0.75   PhiV=0.9   PhiVRolledI=1   PhiVT=0.9   PlugWeld=Yes   HSSWelding=ERW   HSSReduceT=No _
        CheckDefl=No   DLRat=120   SDLAndLLRat=120   LLRat=360   TotalRat=240   NetRat=240
 
TABLE:  "PROGRAM CONTROL"
   ProgramName=SAP2000   Version=25.3.1   CurrUnits="Kip, in, F"   SteelCode="AISC 360-16"   ConcCode="ACI 318-19"   AlumCode="AA 2015"   ColdCode=AISI-16   RegenHinge=Yes
 
TABLE:  "PROJECT INFORMATION"
   Item="Company Name"
   Item="Client Name"
   Item="Project Name"
   Item="Project Number"
   Item="Model Name"
   Item="Model Description"
   Item="Revision Number"
   Item="Frame Type"
   Item=Engineer
   Item=Checker
   Item=Supervisor
   Item="Issue Code"
   Item="Design Code"
 
TABLE:  "REBAR SIZES"
   RebarID=#2   Area=0.05   Diameter=0.25
   RebarID=#3   Area=0.109999999403954   Diameter=0.375
   RebarID=#4   Area=0.200000002980232   Diameter=0.5
   RebarID=#5   Area=0.310000002384186   Diameter=0.625
   RebarID=#6   Area=0.439999997615814   Diameter=0.75
   RebarID=#7   Area=0.600000023841858   Diameter=0.875
   RebarID=#8   Area=0.790000021457672   Diameter=1
   RebarID=#9   Area=1   Diameter=1.12800002098083
   RebarID=#10   Area=1.26999998092651   Diameter=1.26999998092651
   RebarID=#11   Area=1.55999994277954   Diameter=1.4099999666214
   RebarID=#14   Area=2.25   Diameter=1.692999958992
   RebarID=#18   Area=4   Diameter=2.25699996948242
   RebarID=10M   Area=0.155000314116478   Diameter=0.444881916046143
   RebarID=15M   Area=0.310000628232956   Diameter=0.62992125749588
   RebarID=20M   Area=0.465000957250595   Diameter=0.767716526985168
   RebarID=25M   Area=0.775001585483551   Diameter=0.992126047611237
   RebarID=30M   Area=1.08500218391418   Diameter=1.17716538906097
   RebarID=35M   Area=1.5500031709671   Diameter=1.4055118560791
   RebarID=45M   Area=2.3250048160553   Diameter=1.72047245502472
   RebarID=55M   Area=3.87500786781311   Diameter=2.22047257423401
   RebarID=6d   Area=0.0438650883734226   Diameter=0.236220479011536
   RebarID=8d   Area=0.0779651552438736   Diameter=0.31496062874794
   RebarID=10d   Area=0.121675245463848   Diameter=0.393700778484344
   RebarID=12d   Area=0.175150364637375   Diameter=0.472440958023071
   RebarID=14d   Area=0.238700494170189   Diameter=0.551181137561798
   RebarID=16d   Area=0.31155064702034   Diameter=0.62992125749588
   RebarID=20d   Area=0.486700981855392   Diameter=0.787401556968689
   RebarID=25d   Area=0.761051535606384   Diameter=0.984251976013184
   RebarID=26d   Area=0.823051691055298   Diameter=1.02362203598022
   RebarID=28d   Area=0.954801976680756   Diameter=1.1023622751236
   RebarID=N12   Area=0.175150364637375   Diameter=0.472440958023071
   RebarID=N16   Area=0.31155064702034   Diameter=0.62992125749588
   RebarID=N20   Area=0.486700981855392   Diameter=0.787401556968689
   RebarID=N24   Area=0.7006014585495   Diameter=0.944881916046143
   RebarID=N28   Area=0.954801976680756   Diameter=1.1023622751236
   RebarID=N32   Area=1.24620258808136   Diameter=1.25984251499176
   RebarID=N36   Area=1.58100318908691   Diameter=1.41732287406921
 
TABLE:  "SOLID PROPERTY DEFINITIONS"
   SolidProp=Solid1   Material=4000Psi   MatAngleA=0   MatAngleB=0   MatAngleC=0   InComp=Yes   Color=Yellow   GUID=1d07ba56-2730-4f3f-a661-578b507b6320
 
END TABLE DATA
