File C:\Users\Ahmed\Desktop\Graduation-project\development\04-sap model-2\VR bracing\VR bracing.$2k was saved on m/d/yy at h:mm:ss
 
TABLE:  "ACTIVE DEGREES OF FREEDOM"
   UX=Yes   UY=Yes   UZ=Yes   RX=Yes   RY=Yes   RZ=Yes
 
TABLE:  "ANALYSIS OPTIONS"
   Solver=Advanced   SolverProc=Auto   Force32Bit=No   StiffCase=None   GeomMod=None   HingeOpt="In Elements"   NumAThreads=0   MaxFileSize=0   NumDThreads=0   NumRThreads=0   UseMMFiles="Program Determined"   AllowDiff=No
 
TABLE:  "AUTO WAVE 3 - WAVE CHARACTERISTICS - GENERAL"
   WaveChar=Default   WaveType="From Theory"   KinFactor=1   SWaterDepth=1800   WaveHeight=720   WavePeriod=12   WaveTheory=Linear
 
TABLE:  "CASE - MODAL 1 - GENERAL"
   Case=MODAL   ModeType=Eigen   MaxNumModes=12   MinNumModes=1   EigenShift=0   EigenCutoff=0   EigenTol=1E-09   AutoShift=Yes
 
TABLE:  "CASE - STATIC 1 - LOAD ASSIGNMENTS"
   Case=DEAD   LoadType="Load pattern"   LoadName=DEAD   LoadSF=1
 
TABLE:  "CONNECTIVITY - FRAME"
   Frame=11   JointI=9   JointJ=10   IsCurved=No   GUID=9a6b4ae3-bfd7-404e-a1c7-ca9da9547271
   Frame=13   JointI=9   JointJ=11   IsCurved=No   GUID=4f90ed2a-d364-4414-afe8-a70e3678831d
   Frame=14   JointI=10   JointJ=12   IsCurved=No   GUID=73d743ca-ed2a-4c63-bba1-0cdf0f58fec2
   Frame=18   JointI=16   JointJ=17   IsCurved=No   GUID=1aea8fef-af17-4202-b586-bd322eaeb054
   Frame=19   JointI=18   JointJ=19   IsCurved=No   GUID=885f6ef1-1f7e-4e30-8a92-a341580d7e5f
   Frame=20   JointI=16   JointJ=18   IsCurved=No   GUID=530030f0-06af-4259-be5e-979ac0e210cd
   Frame=21   JointI=16   JointJ=20   IsCurved=No   GUID=a6155a5a-ebc8-48ed-a21f-919ea3b08de7
   Frame=22   JointI=20   JointJ=21   IsCurved=No   GUID=d259d5d1-d8d0-43c5-a0e9-058e5565a7ef
   Frame=23   JointI=11   JointJ=14   IsCurved=No   GUID=254ca8f6-4c1e-43f1-bb1f-1417f25a6340
   Frame=24   JointI=14   JointJ=12   IsCurved=No   GUID=5769610e-195a-4117-b55c-73ca5e0aa63c
   Frame=25   JointI=9   JointJ=14   IsCurved=No   GUID=7622b05b-7cef-46d1-9290-6b5062fb91ff
   Frame=26   JointI=14   JointJ=10   IsCurved=No   GUID=b8673a42-b721-4035-98b6-96013e57a544
   Frame=27   JointI=21   JointJ=22   IsCurved=No   GUID=e50ef533-94b9-4156-9b11-e5752830d90c
   Frame=28   JointI=22   JointJ=17   IsCurved=No   GUID=f4026478-61e4-42b7-8d68-9dc05f6220f6
   Frame=29   JointI=19   JointJ=23   IsCurved=No   GUID=b93febf2-18b2-405f-8f27-73fa8f677984
   Frame=30   JointI=23   JointJ=46   IsCurved=No   GUID=d7f8733c-8946-4f91-a373-848557ac2852
   Frame=31   JointI=46   JointJ=47   IsCurved=No   GUID=3f58b77d-5435-4705-a955-0226c19b2c27
   Frame=32   JointI=47   JointJ=18   IsCurved=No   GUID=3d0a8dcf-2bd0-4f8e-8d2c-9ce937e5b4f9
   Frame=33   JointI=20   JointJ=47   IsCurved=No   GUID=a3e7b4f9-e187-4e11-bbc6-a9798057673f
   Frame=34   JointI=21   JointJ=46   IsCurved=No   GUID=70c1f84b-6b2d-456e-a775-cbae1d239cf6
   Frame=35   JointI=22   JointJ=23   IsCurved=No   GUID=494aed56-571e-4a8a-b9c3-2cb367a2d659
   Frame=45   JointI=24   JointJ=25   IsCurved=No   GUID=09d88e3e-7f96-4ba1-b43c-2e61ff75677e
   Frame=46   JointI=25   JointJ=26   IsCurved=No   GUID=fc51bfc6-f228-4bc0-88c7-4d8f9296b77b
   Frame=47   JointI=26   JointJ=27   IsCurved=No   GUID=e4fd99c6-b34b-4c26-92f3-a35363e72eec
   Frame=48   JointI=27   JointJ=28   IsCurved=No   GUID=f72ad9fd-df5c-4981-9f79-3344b4ec4253
   Frame=49   JointI=28   JointJ=29   IsCurved=No   GUID=9efe214a-d6d4-4d64-81c3-ef4868b8da56
   Frame=50   JointI=29   JointJ=30   IsCurved=No   GUID=03b81567-0c11-4215-88dc-1f16e2cca436
   Frame=51   JointI=30   JointJ=31   IsCurved=No   GUID=2f5147bd-7353-4bbd-a20b-72aade45a211
   Frame=52   JointI=31   JointJ=32   IsCurved=No   GUID=15bea158-c517-4323-8575-39673a88f4e9
   Frame=53   JointI=32   JointJ=33   IsCurved=No   GUID=de343a02-fd92-4ce8-8a24-3b1a6834a27e
   Frame=54   JointI=33   JointJ=25   IsCurved=No   GUID=0ec86c0e-d985-4f60-b211-9d864c90d968
   Frame=55   JointI=25   JointJ=31   IsCurved=No   GUID=873d876c-4683-43be-9965-def7a57f6527
   Frame=56   JointI=31   JointJ=27   IsCurved=No   GUID=5306965c-8660-4b1c-b502-bb8b33bac9a4
   Frame=57   JointI=27   JointJ=29   IsCurved=No   GUID=cc1e0094-73d6-4784-bdfd-9ba110632538
   Frame=58   JointI=28   JointJ=30   IsCurved=No   GUID=72bc6350-1632-4cc5-8ad3-3944785f49b7
   Frame=59   JointI=30   JointJ=26   IsCurved=No   GUID=88e3cc99-1bce-46ac-81f5-6db3f01ff21e
   Frame=60   JointI=26   JointJ=32   IsCurved=No   GUID=43d3234d-29b6-4f0d-a80a-4369da154027
   Frame=61   JointI=32   JointJ=24   IsCurved=No   GUID=0ee7e474-65d2-4526-9f47-1512b8a18647
   Frame=62   JointI=34   JointJ=35   IsCurved=No   GUID=077e9e4f-f449-40c7-8e9d-47764bd7df8c
   Frame=63   JointI=36   JointJ=37   IsCurved=No   GUID=94ef7a92-3ec3-44ac-9be2-1bc43744c045
   Frame=64   JointI=34   JointJ=36   IsCurved=No   GUID=4e018f9e-69db-405a-9d90-6f2413af3457
   Frame=65   JointI=34   JointJ=38   IsCurved=No   GUID=f50320fd-2f28-4b0c-9381-7a7e1bf02355
   Frame=66   JointI=38   JointJ=39   IsCurved=No   GUID=9ac84801-847c-4202-be81-d39dfbd92f2f
   Frame=67   JointI=39   JointJ=40   IsCurved=No   GUID=d239e34c-8a07-4b04-9590-a3ca5d5ef11f
   Frame=68   JointI=40   JointJ=35   IsCurved=No   GUID=09df3cf2-f794-4f05-9471-88c3d4dc6a4b
   Frame=69   JointI=37   JointJ=41   IsCurved=No   GUID=1e59ce50-1a9b-4764-a8e3-e80ab63c5b16
   Frame=70   JointI=41   JointJ=42   IsCurved=No   GUID=580d97e7-d37c-4205-ab83-81905491ca14
   Frame=71   JointI=42   JointJ=43   IsCurved=No   GUID=d05c4f71-547c-44c9-bf3b-71a7e6e05e8d
   Frame=72   JointI=43   JointJ=36   IsCurved=No   GUID=6a9b6526-2a50-47e8-82b8-45097abe6157
   Frame=73   JointI=38   JointJ=43   IsCurved=No   GUID=3698f179-1771-4b78-baa5-95a62deecbbf
   Frame=74   JointI=39   JointJ=42   IsCurved=No   GUID=c00b8f80-01b4-40b2-8f2e-f5e151486426
   Frame=75   JointI=40   JointJ=41   IsCurved=No   GUID=1975272a-a3b0-48f8-ba59-5f2215ea8b8c
   Frame=76   JointI=32   JointJ=25   IsCurved=No   GUID=7060a9ac-a05e-49df-aaad-1048e22e28e5
   Frame=77   JointI=26   JointJ=31   IsCurved=No   GUID=176d02ae-4eab-4fe2-b91f-657cc7f3f897
   Frame=78   JointI=27   JointJ=30   IsCurved=No   GUID=6ea70567-b933-48f2-9d51-83fb8906b14d
   Frame=79   JointI=44   JointJ=45   IsCurved=No   GUID=249ea652-e76b-4886-b791-19b515896688
   Frame=102   JointI=58   JointJ=59   IsCurved=No   GUID=21efa08d-7294-43d3-add7-6e1ecd47d8c5
   Frame=103   JointI=60   JointJ=61   IsCurved=No   GUID=95d85bdf-f1a1-43dc-bd70-fca1f0e175c9
   Frame=104   JointI=62   JointJ=63   IsCurved=No   GUID=53c7f0bf-eb43-48f9-a72f-dc121e1f740f
   Frame=105   JointI=64   JointJ=65   IsCurved=No   GUID=c94372e6-ef74-4f45-894a-0acd372742a7
   Frame=106   JointI=56   JointJ=58   IsCurved=No   GUID=5a34ed1f-73b2-4571-897e-e18a0b6daca9
   Frame=107   JointI=57   JointJ=59   IsCurved=No   GUID=0149b95e-24b8-4625-9286-6fe50425f2c4
   Frame=108   JointI=58   JointJ=60   IsCurved=No   GUID=ede116be-61e2-4678-8e09-126462fa3341
   Frame=109   JointI=59   JointJ=61   IsCurved=No   GUID=cae47fd5-249e-4a9b-ad62-4d7ddbf30102
   Frame=110   JointI=60   JointJ=62   IsCurved=No   GUID=2aa2688e-da93-4625-9dc3-9ebf5f0ba307
   Frame=111   JointI=61   JointJ=63   IsCurved=No   GUID=f6003357-78f0-4a0b-a3d3-4aae50b0a870
   Frame=112   JointI=62   JointJ=64   IsCurved=No   GUID=e5edea8d-36d7-48b5-939d-868e118c956f
   Frame=113   JointI=63   JointJ=65   IsCurved=No   GUID=d028025a-5cad-4805-9421-96e01505c44f
   Frame=114   JointI=64   JointJ=63   IsCurved=No   GUID=e3ce78c7-82ea-4e1c-abd7-ae422e269623
   Frame=115   JointI=63   JointJ=60   IsCurved=No   GUID=a2f87f5e-a398-4faf-8a5f-e47987a279a5
   Frame=116   JointI=60   JointJ=59   IsCurved=No   GUID=be6683e3-a08b-40c1-a7ea-652676c1f523
   Frame=117   JointI=59   JointJ=56   IsCurved=No   GUID=243d7a8a-86c7-4d66-b999-2bafef08406e
   Frame=118   JointI=57   JointJ=58   IsCurved=No   GUID=a37abf3c-5da2-4a1f-ad9e-616db5077fc7
   Frame=119   JointI=58   JointJ=61   IsCurved=No   GUID=3644286b-929c-4bd6-9c07-578ad3499612
   Frame=120   JointI=61   JointJ=62   IsCurved=No   GUID=22181c91-46c6-4c78-a57d-912f095d05bc
   Frame=121   JointI=62   JointJ=65   IsCurved=No   GUID=88e462ff-1fb0-4e06-8280-7769c02da3af
 
TABLE:  "COORDINATE SYSTEMS"
   Name=GLOBAL   Type=Cartesian   X=0   Y=0   Z=0   AboutZ=0   AboutY=0   AboutX=0
 
TABLE:  "DATABASE DOCUMENTATION"
 
TABLE:  "DATABASE FORMAT TYPES"
   UnitsCurr=Yes   OverrideE=No
 
TABLE:  "FRAME AUTO MESH ASSIGNMENTS"
   Frame=11   AutoMesh=Yes   AtJoints=Yes   AtFrames=No   NumSegments=0   MaxLength=0   MaxDegrees=0
   Frame=13   AutoMesh=Yes   AtJoints=Yes   AtFrames=No   NumSegments=0   MaxLength=0   MaxDegrees=0
   Frame=14   AutoMesh=Yes   AtJoints=Yes   AtFrames=No   NumSegments=0   MaxLength=0   MaxDegrees=0
   Frame=18   AutoMesh=Yes   AtJoints=Yes   AtFrames=No   NumSegments=0   MaxLength=0   MaxDegrees=0
   Frame=19   AutoMesh=Yes   AtJoints=Yes   AtFrames=No   NumSegments=0   MaxLength=0   MaxDegrees=0
   Frame=20   AutoMesh=Yes   AtJoints=Yes   AtFrames=No   NumSegments=0   MaxLength=0   MaxDegrees=0
   Frame=21   AutoMesh=Yes   AtJoints=Yes   AtFrames=No   NumSegments=0   MaxLength=0   MaxDegrees=0
   Frame=22   AutoMesh=Yes   AtJoints=Yes   AtFrames=No   NumSegments=0   MaxLength=0   MaxDegrees=0
   Frame=23   AutoMesh=Yes   AtJoints=Yes   AtFrames=No   NumSegments=0   MaxLength=0   MaxDegrees=0
   Frame=24   AutoMesh=Yes   AtJoints=Yes   AtFrames=No   NumSegments=0   MaxLength=0   MaxDegrees=0
   Frame=25   AutoMesh=Yes   AtJoints=Yes   AtFrames=No   NumSegments=0   MaxLength=0   MaxDegrees=0
   Frame=26   AutoMesh=Yes   AtJoints=Yes   AtFrames=No   NumSegments=0   MaxLength=0   MaxDegrees=0
   Frame=27   AutoMesh=Yes   AtJoints=Yes   AtFrames=No   NumSegments=0   MaxLength=0   MaxDegrees=0
   Frame=28   AutoMesh=Yes   AtJoints=Yes   AtFrames=No   NumSegments=0   MaxLength=0   MaxDegrees=0
   Frame=29   AutoMesh=Yes   AtJoints=Yes   AtFrames=No   NumSegments=0   MaxLength=0   MaxDegrees=0
   Frame=30   AutoMesh=Yes   AtJoints=Yes   AtFrames=No   NumSegments=0   MaxLength=0   MaxDegrees=0
   Frame=31   AutoMesh=Yes   AtJoints=Yes   AtFrames=No   NumSegments=0   MaxLength=0   MaxDegrees=0
   Frame=32   AutoMesh=Yes   AtJoints=Yes   AtFrames=No   NumSegments=0   MaxLength=0   MaxDegrees=0
   Frame=33   AutoMesh=Yes   AtJoints=Yes   AtFrames=No   NumSegments=0   MaxLength=0   MaxDegrees=0
   Frame=34   AutoMesh=Yes   AtJoints=Yes   AtFrames=No   NumSegments=0   MaxLength=0   MaxDegrees=0
# ... 56 like lines cut
 
TABLE:  "FRAME DESIGN PROCEDURES"
   Frame=11   DesignProc="From Material"
   Frame=13   DesignProc="From Material"
   Frame=14   DesignProc="From Material"
   Frame=18   DesignProc="From Material"
   Frame=19   DesignProc="From Material"
   Frame=20   DesignProc="From Material"
   Frame=21   DesignProc="From Material"
   Frame=22   DesignProc="From Material"
   Frame=23   DesignProc="From Material"
   Frame=24   DesignProc="From Material"
   Frame=25   DesignProc="From Material"
   Frame=26   DesignProc="From Material"
   Frame=27   DesignProc="From Material"
   Frame=28   DesignProc="From Material"
   Frame=29   DesignProc="From Material"
   Frame=30   DesignProc="From Material"
   Frame=31   DesignProc="From Material"
   Frame=32   DesignProc="From Material"
   Frame=33   DesignProc="From Material"
   Frame=34   DesignProc="From Material"
# ... 56 like lines cut
 
TABLE:  "FRAME LOAD TRANSFER OPTIONS"
   Frame=11   Transfer=Yes
   Frame=13   Transfer=Yes
   Frame=14   Transfer=Yes
   Frame=18   Transfer=Yes
   Frame=19   Transfer=Yes
   Frame=20   Transfer=Yes
   Frame=21   Transfer=Yes
   Frame=22   Transfer=Yes
   Frame=23   Transfer=Yes
   Frame=24   Transfer=Yes
   Frame=25   Transfer=Yes
   Frame=26   Transfer=Yes
   Frame=27   Transfer=Yes
   Frame=28   Transfer=Yes
   Frame=29   Transfer=Yes
   Frame=30   Transfer=Yes
   Frame=31   Transfer=Yes
   Frame=32   Transfer=Yes
   Frame=33   Transfer=Yes
   Frame=34   Transfer=Yes
# ... 56 like lines cut
 
TABLE:  "FRAME OUTPUT STATION ASSIGNMENTS"
   Frame=11   StationType=MaxStaSpcg   MaxStaSpcg=24   AddAtElmInt=Yes   AddAtPtLoad=Yes
   Frame=13   StationType=MinNumSta   MinNumSta=3   AddAtElmInt=Yes   AddAtPtLoad=Yes
   Frame=14   StationType=MinNumSta   MinNumSta=3   AddAtElmInt=Yes   AddAtPtLoad=Yes
   Frame=18   StationType=MinNumSta   MinNumSta=3   AddAtElmInt=Yes   AddAtPtLoad=Yes
   Frame=19   StationType=MinNumSta   MinNumSta=3   AddAtElmInt=Yes   AddAtPtLoad=Yes
   Frame=20   StationType=MaxStaSpcg   MaxStaSpcg=24   AddAtElmInt=Yes   AddAtPtLoad=Yes
   Frame=21   StationType=MinNumSta   MinNumSta=3   AddAtElmInt=Yes   AddAtPtLoad=Yes
   Frame=22   StationType=MinNumSta   MinNumSta=3   AddAtElmInt=Yes   AddAtPtLoad=Yes
   Frame=23   StationType=MaxStaSpcg   MaxStaSpcg=24   AddAtElmInt=Yes   AddAtPtLoad=Yes
   Frame=24   StationType=MaxStaSpcg   MaxStaSpcg=24   AddAtElmInt=Yes   AddAtPtLoad=Yes
   Frame=25   StationType=MinNumSta   MinNumSta=3   AddAtElmInt=Yes   AddAtPtLoad=Yes
   Frame=26   StationType=MinNumSta   MinNumSta=3   AddAtElmInt=Yes   AddAtPtLoad=Yes
   Frame=27   StationType=MinNumSta   MinNumSta=3   AddAtElmInt=Yes   AddAtPtLoad=Yes
   Frame=28   StationType=MinNumSta   MinNumSta=3   AddAtElmInt=Yes   AddAtPtLoad=Yes
   Frame=29   StationType=MinNumSta   MinNumSta=3   AddAtElmInt=Yes   AddAtPtLoad=Yes
   Frame=30   StationType=MinNumSta   MinNumSta=3   AddAtElmInt=Yes   AddAtPtLoad=Yes
   Frame=31   StationType=MinNumSta   MinNumSta=3   AddAtElmInt=Yes   AddAtPtLoad=Yes
   Frame=32   StationType=MinNumSta   MinNumSta=3   AddAtElmInt=Yes   AddAtPtLoad=Yes
   Frame=33   StationType=MaxStaSpcg   MaxStaSpcg=24   AddAtElmInt=Yes   AddAtPtLoad=Yes
   Frame=34   StationType=MaxStaSpcg   MaxStaSpcg=24   AddAtElmInt=Yes   AddAtPtLoad=Yes
   Frame=35   StationType=MaxStaSpcg   MaxStaSpcg=24   AddAtElmInt=Yes   AddAtPtLoad=Yes
   Frame=45   StationType=MinNumSta   MinNumSta=3   AddAtElmInt=Yes   AddAtPtLoad=Yes
   Frame=46   StationType=MinNumSta   MinNumSta=3   AddAtElmInt=Yes   AddAtPtLoad=Yes
   Frame=47   StationType=MinNumSta   MinNumSta=3   AddAtElmInt=Yes   AddAtPtLoad=Yes
   Frame=48   StationType=MinNumSta   MinNumSta=3   AddAtElmInt=Yes   AddAtPtLoad=Yes
   Frame=49   StationType=MaxStaSpcg   MaxStaSpcg=24   AddAtElmInt=Yes   AddAtPtLoad=Yes
   Frame=50   StationType=MinNumSta   MinNumSta=3   AddAtElmInt=Yes   AddAtPtLoad=Yes
   Frame=51   StationType=MinNumSta   MinNumSta=3   AddAtElmInt=Yes   AddAtPtLoad=Yes
   Frame=52   StationType=MinNumSta   MinNumSta=3   AddAtElmInt=Yes   AddAtPtLoad=Yes
   Frame=53   StationType=MinNumSta   MinNumSta=3   AddAtElmInt=Yes   AddAtPtLoad=Yes
   Frame=54   StationType=MinNumSta   MinNumSta=3   AddAtElmInt=Yes   AddAtPtLoad=Yes
   Frame=55   StationType=MinNumSta   MinNumSta=3   AddAtElmInt=Yes   AddAtPtLoad=Yes
   Frame=56   StationType=MinNumSta   MinNumSta=3   AddAtElmInt=Yes   AddAtPtLoad=Yes
   Frame=57   StationType=MinNumSta   MinNumSta=3   AddAtElmInt=Yes   AddAtPtLoad=Yes
   Frame=58   StationType=MinNumSta   MinNumSta=3   AddAtElmInt=Yes   AddAtPtLoad=Yes
   Frame=59   StationType=MinNumSta   MinNumSta=3   AddAtElmInt=Yes   AddAtPtLoad=Yes
   Frame=60   StationType=MinNumSta   MinNumSta=3   AddAtElmInt=Yes   AddAtPtLoad=Yes
   Frame=61   StationType=MinNumSta   MinNumSta=3   AddAtElmInt=Yes   AddAtPtLoad=Yes
   Frame=62   StationType=MinNumSta   MinNumSta=3   AddAtElmInt=Yes   AddAtPtLoad=Yes
   Frame=63   StationType=MinNumSta   MinNumSta=3   AddAtElmInt=Yes   AddAtPtLoad=Yes
   Frame=64   StationType=MaxStaSpcg   MaxStaSpcg=24   AddAtElmInt=Yes   AddAtPtLoad=Yes
   Frame=65   StationType=MinNumSta   MinNumSta=3   AddAtElmInt=Yes   AddAtPtLoad=Yes
   Frame=66   StationType=MinNumSta   MinNumSta=3   AddAtElmInt=Yes   AddAtPtLoad=Yes
   Frame=67   StationType=MinNumSta   MinNumSta=3   AddAtElmInt=Yes   AddAtPtLoad=Yes
   Frame=68   StationType=MinNumSta   MinNumSta=3   AddAtElmInt=Yes   AddAtPtLoad=Yes
   Frame=69   StationType=MinNumSta   MinNumSta=3   AddAtElmInt=Yes   AddAtPtLoad=Yes
   Frame=70   StationType=MinNumSta   MinNumSta=3   AddAtElmInt=Yes   AddAtPtLoad=Yes
   Frame=71   StationType=MinNumSta   MinNumSta=3   AddAtElmInt=Yes   AddAtPtLoad=Yes
   Frame=72   StationType=MinNumSta   MinNumSta=3   AddAtElmInt=Yes   AddAtPtLoad=Yes
   Frame=73   StationType=MaxStaSpcg   MaxStaSpcg=24   AddAtElmInt=Yes   AddAtPtLoad=Yes
   Frame=74   StationType=MaxStaSpcg   MaxStaSpcg=24   AddAtElmInt=Yes   AddAtPtLoad=Yes
   Frame=75   StationType=MaxStaSpcg   MaxStaSpcg=24   AddAtElmInt=Yes   AddAtPtLoad=Yes
   Frame=76   StationType=MaxStaSpcg   MaxStaSpcg=24   AddAtElmInt=Yes   AddAtPtLoad=Yes
   Frame=77   StationType=MaxStaSpcg   MaxStaSpcg=24   AddAtElmInt=Yes   AddAtPtLoad=Yes
   Frame=78   StationType=MaxStaSpcg   MaxStaSpcg=24   AddAtElmInt=Yes   AddAtPtLoad=Yes
   Frame=79   StationType=MinNumSta   MinNumSta=3   AddAtElmInt=Yes   AddAtPtLoad=Yes
   Frame=102   StationType=MaxStaSpcg   MaxStaSpcg=24   AddAtElmInt=Yes   AddAtPtLoad=Yes
   Frame=103   StationType=MaxStaSpcg   MaxStaSpcg=24   AddAtElmInt=Yes   AddAtPtLoad=Yes
   Frame=104   StationType=MaxStaSpcg   MaxStaSpcg=24   AddAtElmInt=Yes   AddAtPtLoad=Yes
   Frame=105   StationType=MaxStaSpcg   MaxStaSpcg=24   AddAtElmInt=Yes   AddAtPtLoad=Yes
   Frame=106   StationType=MinNumSta   MinNumSta=3   AddAtElmInt=Yes   AddAtPtLoad=Yes
   Frame=107   StationType=MinNumSta   MinNumSta=3   AddAtElmInt=Yes   AddAtPtLoad=Yes
   Frame=108   StationType=MinNumSta   MinNumSta=3   AddAtElmInt=Yes   AddAtPtLoad=Yes
   Frame=109   StationType=MinNumSta   MinNumSta=3   AddAtElmInt=Yes   AddAtPtLoad=Yes
   Frame=110   StationType=MinNumSta   MinNumSta=3   AddAtElmInt=Yes   AddAtPtLoad=Yes
   Frame=111   StationType=MinNumSta   MinNumSta=3   AddAtElmInt=Yes   AddAtPtLoad=Yes
   Frame=112   StationType=MinNumSta   MinNumSta=3   AddAtElmInt=Yes   AddAtPtLoad=Yes
   Frame=113   StationType=MinNumSta   MinNumSta=3   AddAtElmInt=Yes   AddAtPtLoad=Yes
   Frame=114   StationType=MinNumSta   MinNumSta=3   AddAtElmInt=Yes   AddAtPtLoad=Yes
   Frame=115   StationType=MinNumSta   MinNumSta=3   AddAtElmInt=Yes   AddAtPtLoad=Yes
   Frame=116   StationType=MinNumSta   MinNumSta=3   AddAtElmInt=Yes   AddAtPtLoad=Yes
   Frame=117   StationType=MinNumSta   MinNumSta=3   AddAtElmInt=Yes   AddAtPtLoad=Yes
   Frame=118   StationType=MinNumSta   MinNumSta=3   AddAtElmInt=Yes   AddAtPtLoad=Yes
   Frame=119   StationType=MinNumSta   MinNumSta=3   AddAtElmInt=Yes   AddAtPtLoad=Yes
   Frame=120   StationType=MinNumSta   MinNumSta=3   AddAtElmInt=Yes   AddAtPtLoad=Yes
   Frame=121   StationType=MinNumSta   MinNumSta=3   AddAtElmInt=Yes   AddAtPtLoad=Yes
 
TABLE:  "FRAME RELEASE ASSIGNMENTS 1 - GENERAL"
   Frame=11   PI=No   V2I=No   V3I=No   TI=No   M2I=Yes   M3I=Yes   PJ=No   V2J=No   V3J=No   TJ=No   M2J=Yes   M3J=Yes
   Frame=13   PI=No   V2I=No   V3I=No   TI=No   M2I=Yes   M3I=Yes   PJ=No   V2J=No   V3J=No   TJ=No   M2J=Yes   M3J=Yes
   Frame=14   PI=No   V2I=No   V3I=No   TI=No   M2I=Yes   M3I=Yes   PJ=No   V2J=No   V3J=No   TJ=No   M2J=Yes   M3J=Yes
   Frame=23   PI=No   V2I=No   V3I=No   TI=No   M2I=Yes   M3I=Yes   PJ=No   V2J=No   V3J=No   TJ=No   M2J=Yes   M3J=Yes
   Frame=24   PI=No   V2I=No   V3I=No   TI=No   M2I=Yes   M3I=Yes   PJ=No   V2J=No   V3J=No   TJ=No   M2J=Yes   M3J=Yes
   Frame=25   PI=No   V2I=No   V3I=No   TI=No   M2I=Yes   M3I=Yes   PJ=No   V2J=No   V3J=No   TJ=No   M2J=Yes   M3J=Yes
   Frame=26   PI=No   V2I=No   V3I=No   TI=No   M2I=Yes   M3I=Yes   PJ=No   V2J=No   V3J=No   TJ=No   M2J=Yes   M3J=Yes
   Frame=49   PI=No   V2I=No   V3I=No   TI=No   M2I=Yes   M3I=Yes   PJ=No   V2J=No   V3J=No   TJ=No   M2J=Yes   M3J=Yes
   Frame=54   PI=No   V2I=No   V3I=No   TI=No   M2I=Yes   M3I=Yes   PJ=No   V2J=No   V3J=No   TJ=No   M2J=Yes   M3J=Yes
   Frame=55   PI=No   V2I=No   V3I=No   TI=No   M2I=Yes   M3I=Yes   PJ=No   V2J=No   V3J=No   TJ=No   M2J=Yes   M3J=Yes
   Frame=56   PI=No   V2I=No   V3I=No   TI=No   M2I=Yes   M3I=Yes   PJ=No   V2J=No   V3J=No   TJ=No   M2J=Yes   M3J=Yes
   Frame=57   PI=No   V2I=No   V3I=No   TI=No   M2I=Yes   M3I=Yes   PJ=No   V2J=No   V3J=No   TJ=No   M2J=Yes   M3J=Yes
   Frame=58   PI=No   V2I=No   V3I=No   TI=No   M2I=Yes   M3I=Yes   PJ=No   V2J=No   V3J=No   TJ=No   M2J=Yes   M3J=Yes
   Frame=59   PI=No   V2I=No   V3I=No   TI=No   M2I=Yes   M3I=Yes   PJ=No   V2J=No   V3J=No   TJ=No   M2J=Yes   M3J=Yes
   Frame=60   PI=No   V2I=No   V3I=No   TI=No   M2I=Yes   M3I=Yes   PJ=No   V2J=No   V3J=No   TJ=No   M2J=Yes   M3J=Yes
   Frame=61   PI=No   V2I=No   V3I=No   TI=No   M2I=Yes   M3I=Yes   PJ=No   V2J=No   V3J=No   TJ=No   M2J=Yes   M3J=Yes
   Frame=62   PI=No   V2I=No   V3I=No   TI=Yes   M2I=Yes   M3I=Yes   PJ=No   V2J=No   V3J=No   TJ=No   M2J=Yes   M3J=Yes
   Frame=63   PI=No   V2I=No   V3I=No   TI=Yes   M2I=Yes   M3I=Yes   PJ=No   V2J=No   V3J=No   TJ=No   M2J=Yes   M3J=Yes
   Frame=64   PI=No   V2I=No   V3I=No   TI=No   M2I=Yes   M3I=Yes   PJ=No   V2J=No   V3J=No   TJ=No   M2J=Yes   M3J=Yes
   Frame=65   PI=No   V2I=No   V3I=No   TI=No   M2I=Yes   M3I=Yes   PJ=No   V2J=No   V3J=No   TJ=No   M2J=Yes   M3J=Yes
   Frame=66   PI=No   V2I=No   V3I=No   TI=No   M2I=Yes   M3I=Yes   PJ=No   V2J=No   V3J=No   TJ=No   M2J=Yes   M3J=Yes
   Frame=67   PI=No   V2I=No   V3I=No   TI=No   M2I=Yes   M3I=Yes   PJ=No   V2J=No   V3J=No   TJ=No   M2J=Yes   M3J=Yes
   Frame=68   PI=No   V2I=No   V3I=No   TI=No   M2I=Yes   M3I=Yes   PJ=No   V2J=No   V3J=No   TJ=No   M2J=Yes   M3J=Yes
   Frame=69   PI=No   V2I=No   V3I=No   TI=No   M2I=Yes   M3I=Yes   PJ=No   V2J=No   V3J=No   TJ=No   M2J=Yes   M3J=Yes
   Frame=70   PI=No   V2I=No   V3I=No   TI=No   M2I=Yes   M3I=Yes   PJ=No   V2J=No   V3J=No   TJ=No   M2J=Yes   M3J=Yes
   Frame=71   PI=No   V2I=No   V3I=No   TI=No   M2I=Yes   M3I=Yes   PJ=No   V2J=No   V3J=No   TJ=No   M2J=Yes   M3J=Yes
   Frame=72   PI=No   V2I=No   V3I=No   TI=No   M2I=Yes   M3I=Yes   PJ=No   V2J=No   V3J=No   TJ=No   M2J=Yes   M3J=Yes
   Frame=73   PI=No   V2I=No   V3I=No   TI=No   M2I=Yes   M3I=Yes   PJ=No   V2J=No   V3J=No   TJ=No   M2J=Yes   M3J=Yes
   Frame=74   PI=No   V2I=No   V3I=No   TI=No   M2I=Yes   M3I=Yes   PJ=No   V2J=No   V3J=No   TJ=No   M2J=Yes   M3J=Yes
   Frame=75   PI=No   V2I=No   V3I=No   TI=No   M2I=Yes   M3I=Yes   PJ=No   V2J=No   V3J=No   TJ=No   M2J=Yes   M3J=Yes
   Frame=76   PI=No   V2I=No   V3I=No   TI=No   M2I=Yes   M3I=Yes   PJ=No   V2J=No   V3J=No   TJ=No   M2J=Yes   M3J=Yes
   Frame=77   PI=No   V2I=No   V3I=No   TI=No   M2I=Yes   M3I=Yes   PJ=No   V2J=No   V3J=No   TJ=No   M2J=Yes   M3J=Yes
   Frame=78   PI=No   V2I=No   V3I=No   TI=No   M2I=Yes   M3I=Yes   PJ=No   V2J=No   V3J=No   TJ=No   M2J=Yes   M3J=Yes
   Frame=102   PI=No   V2I=No   V3I=No   TI=No   M2I=Yes   M3I=Yes   PJ=No   V2J=No   V3J=No   TJ=No   M2J=Yes   M3J=Yes
   Frame=103   PI=No   V2I=No   V3I=No   TI=No   M2I=Yes   M3I=Yes   PJ=No   V2J=No   V3J=No   TJ=No   M2J=Yes   M3J=Yes
   Frame=104   PI=No   V2I=No   V3I=No   TI=No   M2I=Yes   M3I=Yes   PJ=No   V2J=No   V3J=No   TJ=No   M2J=Yes   M3J=Yes
   Frame=105   PI=No   V2I=No   V3I=No   TI=No   M2I=Yes   M3I=Yes   PJ=No   V2J=No   V3J=No   TJ=No   M2J=Yes   M3J=Yes
   Frame=114   PI=No   V2I=No   V3I=No   TI=No   M2I=Yes   M3I=Yes   PJ=No   V2J=No   V3J=No   TJ=No   M2J=Yes   M3J=Yes
# ... 7 like lines cut
 
TABLE:  "FRAME SECTION ASSIGNMENTS"
   Frame=11   AutoSelect=N.A.   AnalSect=FSEC1   MatProp=Default
   Frame=13   AutoSelect=N.A.   AnalSect=FSEC1   MatProp=Default
   Frame=14   AutoSelect=N.A.   AnalSect=FSEC1   MatProp=Default
   Frame=18   AutoSelect=N.A.   AnalSect=FSEC1   MatProp=Default
   Frame=19   AutoSelect=N.A.   AnalSect=FSEC1   MatProp=Default
   Frame=20   AutoSelect=N.A.   AnalSect=FSEC1   MatProp=Default
   Frame=21   AutoSelect=N.A.   AnalSect=FSEC1   MatProp=Default
   Frame=22   AutoSelect=N.A.   AnalSect=FSEC1   MatProp=Default
   Frame=23   AutoSelect=N.A.   AnalSect=FSEC1   MatProp=Default
   Frame=24   AutoSelect=N.A.   AnalSect=FSEC1   MatProp=Default
   Frame=25   AutoSelect=N.A.   AnalSect=FSEC1   MatProp=Default
   Frame=26   AutoSelect=N.A.   AnalSect=FSEC1   MatProp=Default
   Frame=27   AutoSelect=N.A.   AnalSect=FSEC1   MatProp=Default
   Frame=28   AutoSelect=N.A.   AnalSect=FSEC1   MatProp=Default
   Frame=29   AutoSelect=N.A.   AnalSect=FSEC1   MatProp=Default
   Frame=30   AutoSelect=N.A.   AnalSect=FSEC1   MatProp=Default
   Frame=31   AutoSelect=N.A.   AnalSect=FSEC1   MatProp=Default
   Frame=32   AutoSelect=N.A.   AnalSect=FSEC1   MatProp=Default
   Frame=33   AutoSelect=N.A.   AnalSect=FSEC1   MatProp=Default
   Frame=34   AutoSelect=N.A.   AnalSect=FSEC1   MatProp=Default
# ... 56 like lines cut
 
TABLE:  "FRAME SECTION PROPERTIES 01 - GENERAL"
   SectionName=FSEC1   Material=A992Fy50   Shape="I/Wide Flange"   t3=12   t2=5   tf=0.38   tw=0.25   t2b=5   tfb=0.38   FilletRadius=0   Area=6.61   TorsConst=0.231870449633333   I33=157.902961333333   I22=7.93130208333333   I23=0   AS2=3 _
        AS3=3.16666666666667   S33Top=26.3171602222222   S33Bot=26.3171602222222   S22Left=3.17252083333333   S22Right=3.17252083333333   Z33=29.9741   Z22=4.925625   R33=4.88758595009503   R22=1.09539692122433   CGOffset3=0   CGOffset2=0 _
        EccV2=0   EccV3=0   Cw=267.235791666667   Color=Gray8Dark   FromFile=No   AMod=1   A2Mod=1   A3Mod=1   JMod=1   I2Mod=1   I3Mod=1   MMod=1   WMod=1   GUID=38053f84-a7e7-479b-a732-2b676eb256e6   Notes="Added 4/21/2025 5:46:50 AM"
 
TABLE:  "FRAME SECTION PROPERTIES 13 - TIME DEPENDENT"
   SectionName=FSEC1   TypeSize=Auto   AutoSFSize=1
 
TABLE:  "FUNCTION - PLOT FUNCTIONS"
   PlotFunc="Input Energy"   Type=Energy   Component=Input   Mode=All
 
TABLE:  "FUNCTION - POWER SPECTRAL DENSITY - USER"
   Name=UNIFPSD   Frequency=0   Value=1
   Name=UNIFPSD   Frequency=1   Value=1
 
TABLE:  "FUNCTION - RESPONSE SPECTRUM - USER"
   Name=UNIFRS   Period=0   Accel=1   FuncDamp=0.05
   Name=UNIFRS   Period=1   Accel=1
 
TABLE:  "FUNCTION - STEADY STATE - USER"
   Name=UNIFSS   Frequency=0   Value=1
   Name=UNIFSS   Frequency=1   Value=1
 
TABLE:  "FUNCTION - TIME HISTORY - USER"
   Name=RAMPTH   Time=0   Value=0
   Name=RAMPTH   Time=1   Value=1
   Name=RAMPTH   Time=4   Value=1
   Name=UNIFTH   Time=0   Value=1
   Name=UNIFTH   Time=1   Value=1
 
TABLE:  "GRID LINES"
   CoordSys=GLOBAL   AxisDir=X   XRYZCoord=0   LineType=Primary   LineColor=Gray8Dark   Visible=Yes   BubbleLoc=End   AllVisible=Yes   BubbleSize=96
   CoordSys=GLOBAL   AxisDir=X   XRYZCoord=236.220472440945   LineType=Primary   LineColor=Gray8Dark   Visible=Yes   BubbleLoc=End
   CoordSys=GLOBAL   AxisDir=X   XRYZCoord=472.44094488189   LineType=Primary   LineColor=Gray8Dark   Visible=Yes   BubbleLoc=End
   CoordSys=GLOBAL   AxisDir=X   XRYZCoord=708.661417322835   LineType=Primary   LineColor=Gray8Dark   Visible=Yes   BubbleLoc=End
   CoordSys=GLOBAL   AxisDir=X   XRYZCoord=944.88188976378   LineType=Primary   LineColor=Gray8Dark   Visible=Yes   BubbleLoc=End
   CoordSys=GLOBAL   AxisDir=X   XRYZCoord=1181.10236220472   LineType=Primary   LineColor=Gray8Dark   Visible=Yes   BubbleLoc=End
   CoordSys=GLOBAL   AxisDir=X   XRYZCoord=1417.32283464567   LineType=Primary   LineColor=Gray8Dark   Visible=Yes   BubbleLoc=End
   CoordSys=GLOBAL   AxisDir=X   XRYZCoord=1653.54330708661   LineType=Primary   LineColor=Gray8Dark   Visible=Yes   BubbleLoc=End
   CoordSys=GLOBAL   AxisDir=X   XRYZCoord=1889.76377952756   LineType=Primary   LineColor=Gray8Dark   Visible=Yes   BubbleLoc=End
   CoordSys=GLOBAL   AxisDir=X   XRYZCoord=2125.9842519685   LineType=Primary   LineColor=Gray8Dark   Visible=Yes   BubbleLoc=End
   CoordSys=GLOBAL   AxisDir=X   XRYZCoord=2362.20472440945   LineType=Primary   LineColor=Gray8Dark   Visible=Yes   BubbleLoc=End
   CoordSys=GLOBAL   AxisDir=X   XRYZCoord=2598.42519685039   LineType=Primary   LineColor=Gray8Dark   Visible=Yes   BubbleLoc=End
   CoordSys=GLOBAL   AxisDir=X   XRYZCoord=2834.64566929134   LineType=Primary   LineColor=Gray8Dark   Visible=Yes   BubbleLoc=End
   CoordSys=GLOBAL   AxisDir=X   XRYZCoord=3070.86614173228   LineType=Primary   LineColor=Gray8Dark   Visible=Yes   BubbleLoc=End
   CoordSys=GLOBAL   AxisDir=X   XRYZCoord=3307.08661417323   LineType=Primary   LineColor=Gray8Dark   Visible=Yes   BubbleLoc=End
   CoordSys=GLOBAL   AxisDir=X   XRYZCoord=3543.30708661417   LineType=Primary   LineColor=Gray8Dark   Visible=Yes   BubbleLoc=End
   CoordSys=GLOBAL   AxisDir=X   XRYZCoord=3779.52755905512   LineType=Primary   LineColor=Gray8Dark   Visible=Yes   BubbleLoc=End
   CoordSys=GLOBAL   AxisDir=X   XRYZCoord=4015.74803149606   LineType=Primary   LineColor=Gray8Dark   Visible=Yes   BubbleLoc=End
   CoordSys=GLOBAL   AxisDir=X   XRYZCoord=4251.96850393701   LineType=Primary   LineColor=Gray8Dark   Visible=Yes   BubbleLoc=End
   CoordSys=GLOBAL   AxisDir=X   XRYZCoord=4488.18897637795   LineType=Primary   LineColor=Gray8Dark   Visible=Yes   BubbleLoc=End
   CoordSys=GLOBAL   AxisDir=X   XRYZCoord=4724.4094488189   LineType=Primary   LineColor=Gray8Dark   Visible=Yes   BubbleLoc=End
# ... 6 like lines cut
   CoordSys=GLOBAL   AxisDir=Y   XRYZCoord=0   LineType=Primary   LineColor=Gray8Dark   Visible=Yes   BubbleLoc=Start
   CoordSys=GLOBAL   AxisDir=Z   XRYZCoord=0   LineType=Primary   LineColor=Gray8Dark   Visible=Yes   BubbleLoc=End
   CoordSys=GLOBAL   AxisDir=Z   XRYZCoord=157.48031496063   LineType=Primary   LineColor=Gray8Dark   Visible=Yes   BubbleLoc=End
   CoordSys=GLOBAL   AxisDir=Z   XRYZCoord=275.590551181102   LineType=Primary   LineColor=Gray8Dark   Visible=Yes   BubbleLoc=End
   CoordSys=GLOBAL   AxisDir=Z   XRYZCoord=393.700787401575   LineType=Primary   LineColor=Gray8Dark   Visible=Yes   BubbleLoc=End
   CoordSys=GLOBAL   AxisDir=Z   XRYZCoord=511.811023622047   LineType=Primary   LineColor=Gray8Dark   Visible=Yes   BubbleLoc=End
   CoordSys=GLOBAL   AxisDir=Z   XRYZCoord=629.92125984252   LineType=Primary   LineColor=Gray8Dark   Visible=Yes   BubbleLoc=End
   CoordSys=GLOBAL   AxisDir=Z   XRYZCoord=748.031496062992   LineType=Primary   LineColor=Gray8Dark   Visible=Yes   BubbleLoc=End
   CoordSys=GLOBAL   AxisDir=Z   XRYZCoord=826.771653543307   LineType=Primary   LineColor=Gray8Dark   Visible=Yes   BubbleLoc=End
   CoordSys=GLOBAL   AxisDir=Z   XRYZCoord=905.511811023622   LineType=Primary   LineColor=Gray8Dark   Visible=Yes   BubbleLoc=End
 
TABLE:  "GROUPS 1 - DEFINITIONS"
   GroupName=ALL   Selection=Yes   SectionCut=Yes   Steel=Yes   Concrete=Yes   Aluminum=Yes   ColdFormed=Yes   Stage=Yes   Bridge=Yes   AutoSeismic=No   AutoWind=No   SelDesSteel=No   SelDesAlum=No   SelDesCold=No   MassWeight=Yes   Color=Red
 
TABLE:  "JOINT COORDINATES"
   Joint=9   CoordSys=GLOBAL   CoordType=Cartesian   XorR=708.661417322835   Y=0   Z=748.031496062992   SpecialJt=No   GUID=f529ada0-0fe2-4826-8616-09c3a21573d6
   Joint=10   CoordSys=GLOBAL   CoordType=Cartesian   XorR=944.88188976378   Y=0   Z=748.031496062992   SpecialJt=No   GUID=5f829416-20a5-44e1-bcb0-c8a2827a3a46
   Joint=11   CoordSys=GLOBAL   CoordType=Cartesian   XorR=708.661417322835   Y=0   Z=826.771653543307   SpecialJt=No   GUID=533a84d7-2a55-458c-9ff9-528970b6f2eb
   Joint=12   CoordSys=GLOBAL   CoordType=Cartesian   XorR=944.88188976378   Y=0   Z=826.771653543307   SpecialJt=No   GUID=d6ee82d2-c5bb-47e1-bea1-6a666543a8f3
   Joint=14   CoordSys=GLOBAL   CoordType=Cartesian   XorR=826.771653543307   Y=0   Z=826.771653543307   SpecialJt=No   GUID=c24b3d27-28f0-4783-bf58-323d12d9faea
   Joint=16   CoordSys=GLOBAL   CoordType=Cartesian   XorR=2598.42519685039   Y=0   Z=511.811023622047   SpecialJt=No   GUID=7d04765e-b90f-4c0f-bbde-e3d008770d8f
   Joint=17   CoordSys=GLOBAL   CoordType=Cartesian   XorR=2598.42519685039   Y=0   Z=0   SpecialJt=No   GUID=d8c13513-6f0c-4b77-a291-2a9d1908b83e
   Joint=18   CoordSys=GLOBAL   CoordType=Cartesian   XorR=2834.64566929134   Y=0   Z=511.811023622047   SpecialJt=No   GUID=a951ce7c-63fa-420d-ad18-7c59d948a79b
   Joint=19   CoordSys=GLOBAL   CoordType=Cartesian   XorR=2834.64566929134   Y=0   Z=0   SpecialJt=No   GUID=3fc2aaf1-3ebe-4e10-8e0f-f2b584cdc593
   Joint=20   CoordSys=GLOBAL   CoordType=Cartesian   XorR=2834.64566929134   Y=0   Z=393.700787401575   SpecialJt=No   GUID=86711bfd-ff26-457b-a9db-20e1db86e57f
   Joint=21   CoordSys=GLOBAL   CoordType=Cartesian   XorR=2598.42519685039   Y=0   Z=275.590551181102   SpecialJt=No   GUID=393500f3-dbfe-4b53-a5f4-31bd4951bbce
   Joint=22   CoordSys=GLOBAL   CoordType=Cartesian   XorR=2834.64566929134   Y=0   Z=157.48031496063   SpecialJt=No   GUID=03b0beed-c455-4698-abc0-6ea45a0916b3
   Joint=23   CoordSys=GLOBAL   CoordType=Cartesian   XorR=2598.42519685039   Y=0   Z=157.48031496063   SpecialJt=No   GUID=89c9b733-f912-4ea4-8d1a-275734ba4c21
   Joint=24   CoordSys=GLOBAL   CoordType=Cartesian   XorR=708.661417322835   Y=0   Z=0   SpecialJt=No   GUID=8a296279-84fe-4e5f-87d8-d7a95d6551d9
   Joint=25   CoordSys=GLOBAL   CoordType=Cartesian   XorR=708.661417322835   Y=0   Z=157.48031496063   SpecialJt=No   GUID=15ebf36e-0115-407c-93df-dd3fd432a7d4
   Joint=26   CoordSys=GLOBAL   CoordType=Cartesian   XorR=708.661417322835   Y=0   Z=275.590551181102   SpecialJt=No   GUID=2219658a-f273-4919-97f5-d3239830b349
   Joint=27   CoordSys=GLOBAL   CoordType=Cartesian   XorR=708.661417322835   Y=0   Z=393.700787401575   SpecialJt=No   GUID=83cb3355-4b2a-4b12-b54a-5c76c0b24b6a
   Joint=28   CoordSys=GLOBAL   CoordType=Cartesian   XorR=708.661417322835   Y=0   Z=511.811023622047   SpecialJt=No   GUID=3c2e8c78-ba41-4bad-922a-1150ee4d65f9
   Joint=29   CoordSys=GLOBAL   CoordType=Cartesian   XorR=944.88188976378   Y=0   Z=511.811023622047   SpecialJt=No   GUID=09c1d56a-a004-49d2-81e8-cecc79fdb4db
   Joint=30   CoordSys=GLOBAL   CoordType=Cartesian   XorR=944.88188976378   Y=0   Z=393.700787401575   SpecialJt=No   GUID=5a3a279f-986b-4fa4-8c38-69161db85fe1
   Joint=31   CoordSys=GLOBAL   CoordType=Cartesian   XorR=944.88188976378   Y=0   Z=275.590551181102   SpecialJt=No   GUID=5517790a-f087-408c-a2d0-388f47c0b062
   Joint=32   CoordSys=GLOBAL   CoordType=Cartesian   XorR=944.88188976378   Y=0   Z=157.48031496063   SpecialJt=No   GUID=048e7208-af3d-45fc-aac9-9d2803188924
   Joint=33   CoordSys=GLOBAL   CoordType=Cartesian   XorR=944.88188976378   Y=0   Z=0   SpecialJt=No   GUID=f0d75f0f-2ed1-4f94-ba9f-bce8dbb04c26
   Joint=34   CoordSys=GLOBAL   CoordType=Cartesian   XorR=1181.10236220472   Y=0   Z=511.811023622047   SpecialJt=No   GUID=fe2a3de4-f975-4f95-bae7-0db9216f8a10
   Joint=35   CoordSys=GLOBAL   CoordType=Cartesian   XorR=1181.10236220472   Y=0   Z=0   SpecialJt=No   GUID=2cd4801c-ae70-4856-ab24-97763ebfbc58
   Joint=36   CoordSys=GLOBAL   CoordType=Cartesian   XorR=1417.32283464567   Y=0   Z=511.811023622047   SpecialJt=No   GUID=51249252-4851-4892-ade2-48c9d9d0fa79
   Joint=37   CoordSys=GLOBAL   CoordType=Cartesian   XorR=1417.32283464567   Y=0   Z=0   SpecialJt=No   GUID=b8410c93-626d-468b-9271-3858dc266ca8
   Joint=38   CoordSys=GLOBAL   CoordType=Cartesian   XorR=1417.32283464567   Y=0   Z=393.700787401575   SpecialJt=No   GUID=e5b72011-64e2-468a-9c7c-752bc82250de
   Joint=39   CoordSys=GLOBAL   CoordType=Cartesian   XorR=1181.10236220472   Y=0   Z=275.590551181102   SpecialJt=No   GUID=208f7443-091a-4f5c-98e1-cebf91a5e2ea
   Joint=40   CoordSys=GLOBAL   CoordType=Cartesian   XorR=1417.32283464567   Y=0   Z=157.48031496063   SpecialJt=No   GUID=472fcc26-7bc3-4409-970a-55b6ff5e44a5
   Joint=41   CoordSys=GLOBAL   CoordType=Cartesian   XorR=1181.10236220472   Y=0   Z=157.48031496063   SpecialJt=No   GUID=af6b8643-1eca-4f27-852a-d5004934c841
   Joint=42   CoordSys=GLOBAL   CoordType=Cartesian   XorR=1417.32283464567   Y=0   Z=275.590551181102   SpecialJt=No   GUID=c4140966-8614-4715-81d7-3708712bb89f
   Joint=43   CoordSys=GLOBAL   CoordType=Cartesian   XorR=1181.10236220472   Y=0   Z=393.700787401575   SpecialJt=No   GUID=d72730c6-5d35-4db3-9605-75dc7d3d8d0d
   Joint=44   CoordSys=GLOBAL   CoordType=Cartesian   XorR=6141.73228346457   Y=0   Z=826.771653543307   SpecialJt=No   GUID=910b9885-94f2-47eb-84ca-781187623f17
   Joint=45   CoordSys=GLOBAL   CoordType=Cartesian   XorR=6141.73228346457   Y=0   Z=905.511811023622   SpecialJt=No   GUID=386fe7e7-29cd-40b9-ae84-1c8ff89b22ba
   Joint=46   CoordSys=GLOBAL   CoordType=Cartesian   XorR=2834.64566929134   Y=0   Z=275.590551181102   SpecialJt=No   GUID=e282efb5-016e-4b5d-a5c3-f6e39bdbd2f9
   Joint=47   CoordSys=GLOBAL   CoordType=Cartesian   XorR=2598.42519685039   Y=0   Z=393.700787401575   SpecialJt=No   GUID=84681370-88af-4e81-80ab-98db6cd7096d
   Joint=56   CoordSys=GLOBAL   CoordType=Cartesian   XorR=2125.9842519685   Y=0   Z=0   SpecialJt=No   GUID=00a1c031-2b24-41d3-9009-6bc822d28d50
   Joint=57   CoordSys=GLOBAL   CoordType=Cartesian   XorR=2362.20472440945   Y=0   Z=0   SpecialJt=No   GUID=d626d1e1-0fa8-4d22-8b4a-6323be969913
   Joint=58   CoordSys=GLOBAL   CoordType=Cartesian   XorR=2125.9842519685   Y=0   Z=157.48031496063   SpecialJt=No   GUID=1f8e5ff1-669a-4845-b39e-6a4b64b4cc87
   Joint=59   CoordSys=GLOBAL   CoordType=Cartesian   XorR=2362.20472440945   Y=0   Z=157.48031496063   SpecialJt=No   GUID=7707c8e1-b880-4501-aa74-202c8b86998a
   Joint=60   CoordSys=GLOBAL   CoordType=Cartesian   XorR=2125.9842519685   Y=0   Z=275.590551181102   SpecialJt=No   GUID=3f1d0894-5715-4e93-a7b7-5c0288ea92c0
   Joint=61   CoordSys=GLOBAL   CoordType=Cartesian   XorR=2362.20472440945   Y=0   Z=275.590551181102   SpecialJt=No   GUID=b8474bb5-e724-4a63-9e25-ffd0df9e6e3f
   Joint=62   CoordSys=GLOBAL   CoordType=Cartesian   XorR=2125.9842519685   Y=0   Z=393.700787401575   SpecialJt=No   GUID=358fc111-8e82-417a-9ec8-ec4cbde8ef95
   Joint=63   CoordSys=GLOBAL   CoordType=Cartesian   XorR=2362.20472440945   Y=0   Z=393.700787401575   SpecialJt=No   GUID=2956eb89-e392-4813-9ca6-e6cb11c5e502
   Joint=64   CoordSys=GLOBAL   CoordType=Cartesian   XorR=2125.9842519685   Y=0   Z=511.811023622047   SpecialJt=No   GUID=a3fa4fd6-3e27-44a6-af7a-36995bbcb07e
   Joint=65   CoordSys=GLOBAL   CoordType=Cartesian   XorR=2362.20472440945   Y=0   Z=511.811023622047   SpecialJt=No   GUID=66957196-c5c5-4e77-828f-038a1d42cddd
 
TABLE:  "JOINT LOADS - FORCE"
   Joint=11   LoadPat=DEAD   CoordSys=GLOBAL   F1=2.86600921884935   F2=0   F3=0   M1=0   M2=0   M3=0   GUID=e7ccb922-0000-46fc-a78c-387ce3aa3e3f
   Joint=12   LoadPat=DEAD   CoordSys=GLOBAL   F1=2.64554697124555   F2=0   F3=0   M1=0   M2=0   M3=0   GUID=15ec5ed6-0b1b-4c68-9fa3-ff2f46a11d4b
   Joint=28   LoadPat=DEAD   CoordSys=GLOBAL   F1=2.86600921884935   F2=0   F3=0   M1=0   M2=0   M3=0   GUID=3af06664-e516-4097-bcb1-57f9c129f213
   Joint=29   LoadPat=DEAD   CoordSys=GLOBAL   F1=3.59353463594187   F2=0   F3=0   M1=0   M2=0   M3=0   GUID=45a6af22-ec5f-4e33-8970-5a0333f146a1
   Joint=30   LoadPat=DEAD   CoordSys=GLOBAL   F1=7.27525417092526   F2=0   F3=0   M1=0   M2=0   M3=0   GUID=c3368d81-3362-4dcc-b779-72e99100b504
   Joint=34   LoadPat=DEAD   CoordSys=GLOBAL   F1=14.1095838466429   F2=0   F3=0   M1=0   M2=0   M3=0   GUID=4890f53f-fa4c-4fb3-a947-43824354299b
   Joint=36   LoadPat=DEAD   CoordSys=GLOBAL   F1=15.8732818274733   F2=0   F3=0   M1=0   M2=0   M3=0   GUID=469bcc16-9097-472c-bd48-e4c1189b979e
   Joint=38   LoadPat=DEAD   CoordSys=GLOBAL   F1=32.4740890720391   F2=0   F3=0   M1=0   M2=0   M3=0   GUID=2977cf28-9fb8-4771-98e5-3d8470330b3f
   Joint=63   LoadPat=DEAD   CoordSys=GLOBAL   F1=22.0462247603796   F2=0   F3=0   M1=0   M2=0   M3=0   GUID=98c44d7f-866c-49b1-b7db-ac6931ea9e38
   Joint=64   LoadPat=DEAD   CoordSys=GLOBAL   F1=14.1095838466429   F2=0   F3=0   M1=0   M2=0   M3=0   GUID=ca506069-95de-4f92-9185-ff95283bbd5f
   Joint=65   LoadPat=DEAD   CoordSys=GLOBAL   F1=15.8732818274733   F2=0   F3=0   M1=0   M2=0   M3=0   GUID=f4134bfb-2424-4b98-aac4-7d4bd896be14
   Joint=16   LoadPat=DEAD   CoordSys=GLOBAL   F1=2.86600921884935   F2=0   F3=0   M1=0   M2=0   M3=0   GUID=e8aeb602-45c1-4351-838f-cdc6c20eaf72
   Joint=18   LoadPat=DEAD   CoordSys=GLOBAL   F1=3.57148841118149   F2=0   F3=0   M1=0   M2=0   M3=0   GUID=2301c9a8-2165-404c-911e-a6067bcb7df1
 
TABLE:  "JOINT PATTERN DEFINITIONS"
   Pattern=Default
 
TABLE:  "JOINT RESTRAINT ASSIGNMENTS"
   Joint=9   U1=Yes   U2=Yes   U3=Yes   R1=No   R2=No   R3=No
   Joint=10   U1=Yes   U2=Yes   U3=Yes   R1=No   R2=No   R3=No
   Joint=17   U1=Yes   U2=Yes   U3=Yes   R1=No   R2=No   R3=No
   Joint=19   U1=Yes   U2=Yes   U3=Yes   R1=No   R2=No   R3=No
   Joint=24   U1=Yes   U2=Yes   U3=Yes   R1=No   R2=No   R3=No
   Joint=33   U1=Yes   U2=Yes   U3=Yes   R1=No   R2=No   R3=No
   Joint=35   U1=Yes   U2=Yes   U3=Yes   R1=No   R2=No   R3=No
   Joint=37   U1=Yes   U2=Yes   U3=Yes   R1=No   R2=No   R3=No
   Joint=56   U1=Yes   U2=Yes   U3=Yes   R1=No   R2=No   R3=No
   Joint=57   U1=Yes   U2=Yes   U3=Yes   R1=No   R2=No   R3=No
 
TABLE:  "LOAD CASE DEFINITIONS"
   Case=DEAD   Type=LinStatic   InitialCond=Zero   DesTypeOpt="Prog Det"   DesignType=Dead   DesActOpt="Prog Det"   DesignAct=Non-Composite   AutoType=None   RunCase=Yes   GUID=751acfe4-877d-47cb-b181-a4e769997d39
   Case=MODAL   Type=LinModal   InitialCond=Zero   DesTypeOpt="Prog Det"   DesignType=Other   DesActOpt="Prog Det"   DesignAct=Other   AutoType=None   RunCase=Yes   GUID=dc2e513b-38f7-424d-a65f-86a3a5c5a82d
 
TABLE:  "LOAD PATTERN DEFINITIONS"
   LoadPat=DEAD   DesignType=Dead   SelfWtMult=1   GUID=c222dd9c-0094-4a43-bf87-b997802d2487
 
TABLE:  "MASS SOURCE"
   MassSource=MSSSRC1   Elements=Yes   Masses=Yes   Loads=No   IsDefault=Yes
 
TABLE:  "MATERIAL PROPERTIES 01 - GENERAL"
   Material=4000Psi   Type=Concrete   Grade="f'c 4000 psi"   SymType=Isotropic   TempDepend=No   Color=Yellow   GUID=cb87226b-0038-4918-ae20-d91760174d06   Notes="Customary f'c 4000 psi 4/21/2025 5:39:26 AM"
   Material=A416Gr270   Type=Tendon   Grade="Grade 270"   SymType=Uniaxial   TempDepend=No   Color=Magenta   GUID=040189d1-3659-47c0-af8b-0b9d4a24c9d7   Notes="ASTM A416 Grade 270 4/21/2025 6:05:56 PM"
   Material=A992Fy50   Type=Steel   Grade="Grade 50"   SymType=Isotropic   TempDepend=No   Color=Magenta   GUID=2ac162fa-a4f0-40e4-982b-806efa20c732   Notes="ASTM A992 Grade 50 4/21/2025 5:39:26 AM"
 
TABLE:  "MATERIAL PROPERTIES 02 - BASIC MECHANICAL PROPERTIES"
   Material=4000Psi   UnitWeight=8.680555556E-05   UnitMass=2.248332521E-07   E1=3604.9965   G12=1502.081875   U12=0.2   A1=5.5E-06
   Material=A416Gr270   UnitWeight=0.000283564814814815   UnitMass=7.34455290352564E-07   E1=28500   A1=6.5E-06
   Material=A992Fy50   UnitWeight=0.000283564814814815   UnitMass=7.34455290352564E-07   E1=29000   G12=11153.8461538462   U12=0.3   A1=6.5E-06
 
TABLE:  "MATERIAL PROPERTIES 03A - STEEL DATA"
   Material=A992Fy50   Fy=50   Fu=65   EffFy=55   EffFu=71.5   SSCurveOpt=Simple   SSHysType=Kinematic   SHard=0.015   SMax=0.11   SRup=0.17   FinalSlope=-0.1   CoupModType="Von Mises"
 
TABLE:  "MATERIAL PROPERTIES 03B - CONCRETE DATA"
   Material=4000Psi   Fc=4   eFc=4   LtWtConc=No   SSCurveOpt=Mander   SSHysType=Takeda   SFc=0.00221914   SCap=0.005   FinalSlope=-0.1   FAngle=0   DAngle=0   CoupModType="Modified Darwin-Pecknold"
 
TABLE:  "MATERIAL PROPERTIES 03F - TENDON DATA"
   Material=A416Gr270   Fy=245.1   Fu=270   SSCurveOpt="270 ksi"   SSHysType=Kinematic   FinalSlope=-0.1   CoupModType="Von Mises"
 
TABLE:  "MATERIAL PROPERTIES 03J - COUPLED NONLINEAR VON MISES DATA"
   Material=A416Gr270   YieldStress=245.1   LinIsoHard=No   LinKinHard=No   NLIsoSaHard=No
   Material=A992Fy50   YieldStress=55   LinIsoHard=No   LinKinHard=No   NLIsoSaHard=No
 
TABLE:  "MATERIAL PROPERTIES 06 - DAMPING PARAMETERS"
   Material=4000Psi   ModalRatio=0   VisMass=0   VisStiff=0   HysMass=0   HysStiff=0
   Material=A416Gr270   ModalRatio=0   VisMass=0   VisStiff=0   HysMass=0   HysStiff=0
   Material=A992Fy50   ModalRatio=0   VisMass=0   VisStiff=0   HysMass=0   HysStiff=0
 
TABLE:  "MATERIAL PROPERTIES 09 - ACCEPTANCE CRITERIA"
   Material=4000Psi   IOTens=0.01   LSTens=0.02   CPTens=0.05   IOComp=-0.003   LSComp=-0.006   CPComp=-0.015   IgnoreTens=Yes
   Material=A416Gr270   IOTens=0.015   LSTens=0.023   CPTens=0.03   IOComp=-0.015   LSComp=-0.023   CPComp=-0.03
   Material=A992Fy50   IOTens=0.01   LSTens=0.02   CPTens=0.05   IOComp=-0.005   LSComp=-0.01   CPComp=-0.02
 
TABLE:  "OPTIONS - COLORS - DISPLAY"
   DeviceType=Screen   Points=Yellow   LinesFrame=Yellow   LinesFrmDL=Yellow   LinesCable=Green   LinesTendon=Green   SpringLinks=Green   Restraints=Green   Releases=Green   Axes=Cyan   Text=Green   ShadowLines=Gray8Dark _
        GuideLines=Gray8Dark   Highlight=Red   Selection=White   AreaFillBot=Red   AreaFillTop=16744703   AreaFillSd=Red   AreaEdge=DarkRed   SolidF1=Red   SolidF2=Blue   SolidF3=Green   SolidF4=Yellow   SolidF5=White   SolidF6=Cyan _
        SolidEdge=DarkRed   Floor=Gray4   Background=Black   BGLowLeft=Black   BGLowRight=Black   BGUpRight=Black   Darkness=0.5
   DeviceType=Printer   Points=Gray8Dark   LinesFrame=Black   LinesFrmDL=Gray4   LinesCable=Black   LinesTendon=Black   SpringLinks=Gray8Dark   Restraints=Gray8Dark   Releases=Gray4   Axes=Black   Text=Black   ShadowLines=Gray4 _
        GuideLines=Gray4   Highlight=Black   Selection=Black   AreaFillBot=Gray4   AreaFillTop=Gray8Dark   AreaFillSd=Gray4   AreaEdge=Black   SolidF1=Gray1Light   SolidF2=Gray2   SolidF3=Gray3   SolidF4=Gray4   SolidF5=Gray5 _
        SolidF6=Gray6   SolidEdge=Black   Floor=Gray4   Background=White   BGLowLeft=White   BGLowRight=White   BGUpRight=White   Darkness=0.5
   DeviceType="Color Printer"   Points=Blue   LinesFrame=Blue   LinesFrmDL=Blue   LinesCable=Green   LinesTendon=Green   SpringLinks=Green   Restraints=Green   Releases=Green   Axes=Cyan   Text=Black   ShadowLines=Gray8Dark _
        GuideLines=Gray8Dark   Highlight=Red   Selection=10504778   AreaFillBot=Red   AreaFillTop=16744703   AreaFillSd=Red   AreaEdge=DarkRed   SolidF1=Red   SolidF2=Blue   SolidF3=Green   SolidF4=Yellow   SolidF5=White   SolidF6=Cyan _
        SolidEdge=DarkRed   Floor=Gray4   Background=White   BGLowLeft=White   BGLowRight=White   BGUpRight=White   Darkness=0.5
 
TABLE:  "OPTIONS - COLORS - OUTPUT"
   DeviceType=Screen   Contour1=13107400   Contour2=6553828   Contour3=Red   Contour4=16639   Contour5=Orange   Contour6=43775   Contour7=54527   Contour8=Yellow   Contour9=65408   Contour10=Green   Contour11=8453888   Contour12=Cyan _
        Contour13=16755200   Contour14=16733440   Contour15=Blue   Transpare=0   Ratio1=Cyan   Ratio2=Green   Ratio3=Yellow   Ratio4=Orange   Ratio5=Red   RatioNotD=Gray4   RatioNotC=Red   RatioVal1=0.5   RatioVal2=0.7   RatioVal3=0.9 _
        RatioVal4=1   DFillPos=Blue   DFillNeg=Red   DFillRPos=9498256   DFillRNeg=9498256
   DeviceType=Printer   Contour1=Black   Contour2=3158064   Contour3=4210752   Contour4=5263440   Contour5=6316128   Contour6=7368816   Contour7=Gray8Dark   Contour8=Gray7   Contour9=Gray6   Contour10=Gray5   Contour11=Gray4 _
        Contour12=Gray3   Contour13=Gray2   Contour14=Gray1Light   Contour15=White   Transpare=0   Ratio1=Gray2   Ratio2=Gray4   Ratio3=Gray8Dark   Ratio4=4210752   Ratio5=Black   RatioNotD=Gray4   RatioNotC=Black   RatioVal1=0.5 _
        RatioVal2=0.7   RatioVal3=0.9   RatioVal4=1   DFillPos=Gray8Dark   DFillNeg=Gray8Dark   DFillRPos=4210752   DFillRNeg=4210752
   DeviceType="Color Printer"   Contour1=13107400   Contour2=6553828   Contour3=Red   Contour4=16639   Contour5=Orange   Contour6=43775   Contour7=54527   Contour8=Yellow   Contour9=65408   Contour10=Green   Contour11=8453888 _
        Contour12=Cyan   Contour13=16755200   Contour14=16733440   Contour15=Blue   Transpare=0   Ratio1=Cyan   Ratio2=Green   Ratio3=Yellow   Ratio4=Orange   Ratio5=Red   RatioNotD=Gray4   RatioNotC=Red   RatioVal1=0.5   RatioVal2=0.7 _
        RatioVal3=0.9   RatioVal4=1   DFillPos=Blue   DFillNeg=Red   DFillRPos=9498256   DFillRNeg=9498256
 
TABLE:  "PREFERENCES - ALUMINUM DESIGN - AA 2015"
   THDesign=Envelopes   SRatioLimit=1   Provision=LRFD   LatFact=1.33333333333333   UseLatFact=No   Bridge=No   PhiTy=0.9   PhiTr=0.75   PhiC=0.9   PhiBo=0.9   PhiBr=0.75   PhiVo=0.9   PhiVr=0.75
 
TABLE:  "PREFERENCES - COLD FORMED DESIGN - AISI-16"
   THDesign=Envelopes   FrameType="Braced Frame"   SRatioLimit=1   SOMethod="General 2nd Order"   Provision=LRFD   LatFact=1.33333333333333   UseLatFact=No   PhiTy=0.9   PhiTr=0.75   PhiC=0.85   PhiB=0.9   PhiBPipe=0.95   PhiV=0.95
 
TABLE:  "PREFERENCES - CONCRETE DESIGN - ACI 318-19"
   THDesign=Envelopes   NumCurves=24   NumPoints=11   MinEccen=Yes   BCCDesign=Yes   IgnoreBPu=Yes   CTorsion=Yes   PatLLF=0.75   UFLimit=0.95   SeisCat=D   Rho=1   Sds=0.5   PhiT=0.9   PhiCTied=0.65   PhiCSpiral=0.75   PhiV=0.75 _
        PhiVSeismic=0.6   PhiVJoint=0.85   TanTheta=1
 
TABLE:  "PREFERENCES - CONCRETE SHELL DESIGN - EUROCODE 2-2004"
   Country="CEN Default"   GammaS=1.15   GammaC=1.5   AlphaCC=1   AlphaCT=1   CrackCond="Program Determined"   ShrDesMet="Method 1"   CotTheta=1   AddTenForce=Yes
 
TABLE:  "PREFERENCES - DIMENSIONAL"
   MergeTol=0.1   FineGrid=12   Nudge=12   SelectTol=3   SnapTol=12   SLineThick=2   PLineThick=4   MaxFont=12   MinFont=6   AutoZoom=10   ShrinkFact=70   TextFileLen=240
 
TABLE:  "PREFERENCES - STEEL DESIGN - AISC 360-16"
   THDesign=Envelopes   FrameType=SMF   PatLLF=0.75   SRatioLimit=0.95   MaxIter=1   SDC=D   SeisCode=No   SeisLoad=No   ImpFactor=1   SystemRho=1   SystemSds=0.5   SystemR=8   SystemCd=5.5   Omega0=3   Provision=LRFD _
        AMethod="Direct Analysis"   SOMethod="General 2nd Order"   SRMethod="Tau-b Fixed"   NLCoeff=0.002   PhiB=0.9   PhiC=0.9   PhiTY=0.9   PhiTF=0.75   PhiV=0.9   PhiVRolledI=1   PhiVT=0.9   PlugWeld=Yes   HSSWelding=ERW   HSSReduceT=No _
        CheckDefl=No   DLRat=120   SDLAndLLRat=120   LLRat=360   TotalRat=240   NetRat=240
 
TABLE:  "PROGRAM CONTROL"
   ProgramName=SAP2000   Version=25.3.1   CurrUnits="Kip, in, F"   SteelCode="AISC 360-16"   ConcCode="ACI 318-19"   AlumCode="AA 2015"   ColdCode=AISI-16   RegenHinge=Yes
 
TABLE:  "PROJECT INFORMATION"
   Item="Company Name"
   Item="Client Name"
   Item="Project Name"
   Item="Project Number"
   Item="Model Name"
   Item="Model Description"
   Item="Revision Number"
   Item="Frame Type"
   Item=Engineer
   Item=Checker
   Item=Supervisor
   Item="Issue Code"
   Item="Design Code"
 
TABLE:  "REBAR SIZES"
   RebarID=#2   Area=0.05   Diameter=0.25
   RebarID=#3   Area=0.109999999403954   Diameter=0.375
   RebarID=#4   Area=0.200000002980232   Diameter=0.5
   RebarID=#5   Area=0.310000002384186   Diameter=0.625
   RebarID=#6   Area=0.439999997615814   Diameter=0.75
   RebarID=#7   Area=0.600000023841858   Diameter=0.875
   RebarID=#8   Area=0.790000021457672   Diameter=1
   RebarID=#9   Area=1   Diameter=1.12800002098083
   RebarID=#10   Area=1.26999998092651   Diameter=1.26999998092651
   RebarID=#11   Area=1.55999994277954   Diameter=1.4099999666214
   RebarID=#14   Area=2.25   Diameter=1.692999958992
   RebarID=#18   Area=4   Diameter=2.25699996948242
   RebarID=10M   Area=0.155000314116478   Diameter=0.444881916046143
   RebarID=15M   Area=0.310000628232956   Diameter=0.62992125749588
   RebarID=20M   Area=0.465000957250595   Diameter=0.767716526985168
   RebarID=25M   Area=0.775001585483551   Diameter=0.992126047611237
   RebarID=30M   Area=1.08500218391418   Diameter=1.17716538906097
   RebarID=35M   Area=1.5500031709671   Diameter=1.4055118560791
   RebarID=45M   Area=2.3250048160553   Diameter=1.72047245502472
   RebarID=55M   Area=3.87500786781311   Diameter=2.22047257423401
   RebarID=6d   Area=0.0438650883734226   Diameter=0.236220479011536
   RebarID=8d   Area=0.0779651552438736   Diameter=0.31496062874794
   RebarID=10d   Area=0.121675245463848   Diameter=0.393700778484344
   RebarID=12d   Area=0.175150364637375   Diameter=0.472440958023071
   RebarID=14d   Area=0.238700494170189   Diameter=0.551181137561798
   RebarID=16d   Area=0.31155064702034   Diameter=0.62992125749588
   RebarID=20d   Area=0.486700981855392   Diameter=0.787401556968689
   RebarID=25d   Area=0.761051535606384   Diameter=0.984251976013184
   RebarID=26d   Area=0.823051691055298   Diameter=1.02362203598022
   RebarID=28d   Area=0.954801976680756   Diameter=1.1023622751236
   RebarID=N12   Area=0.175150364637375   Diameter=0.472440958023071
   RebarID=N16   Area=0.31155064702034   Diameter=0.62992125749588
   RebarID=N20   Area=0.486700981855392   Diameter=0.787401556968689
   RebarID=N24   Area=0.7006014585495   Diameter=0.944881916046143
   RebarID=N28   Area=0.954801976680756   Diameter=1.1023622751236
   RebarID=N32   Area=1.24620258808136   Diameter=1.25984251499176
   RebarID=N36   Area=1.58100318908691   Diameter=1.41732287406921
 
TABLE:  "SOLID PROPERTY DEFINITIONS"
   SolidProp=Solid1   Material=4000Psi   MatAngleA=0   MatAngleB=0   MatAngleC=0   InComp=Yes   Color=Yellow   GUID=c039f4fc-44ae-4caa-867d-17e2b1145dc6
 
END TABLE DATA
